@<TRIPOS>MOLECULE
combination
306 602 226 0 0
SMALL
NO_CHARGES


@<TRIPOS>ATOM
      1 Fe          0.0000    0.0000    4.8932 Fe        1 UNL    0.0000
      2 O           1.5411    0.0000    3.4438 O         1 UNL    0.0000
      3 Fe          2.5190   -4.3630    4.8932 Fe        2 UNL    0.0000
      4 O           1.7485   -3.0284    3.4438 O         2 UNL    0.0000
      5 Fe          5.0380    0.0000    4.8932 Fe        3 UNL    0.0000
      6 O           4.2675   -1.3346    3.4438 O         3 UNL    0.0000
      7 Fe          7.5570   -4.3630    1.9928 Fe        4 UNL    0.0000
      8 O           6.7864   -3.0284    3.4422 O         4 UNL    0.0000
      9 Fe          2.5190   -4.3630    1.9928 Fe        5 UNL    0.0000
     10 O           4.0601   -4.3630    3.4422 O         5 UNL    0.0000
     11 Fe          5.0380    0.0000    1.9928 Fe        6 UNL    0.0000
     12 Fe          7.5570   -4.3630    8.8788 Fe        7 UNL    0.0000
     13 O           6.0159   -4.3630   10.3282 O         7 UNL    0.0000
     14 Fe          5.0380    0.0000    8.8788 Fe        8 UNL    0.0000
     15 O           5.8086   -1.3346   10.3282 O         8 UNL    0.0000
     16 Fe          2.5190   -4.3630    8.8788 Fe        9 UNL    0.0000
     17 O           3.2896   -3.0284   10.3282 O         9 UNL    0.0000
     18 Fe          0.0000    0.0000   11.7792 Fe       10 UNL    0.0000
     19 O           0.7706   -1.3346   10.3298 O        10 UNL    0.0000
     20 Fe          5.0380    0.0000   11.7792 Fe       11 UNL    0.0000
     21 O           3.4969    0.0000   10.3298 O        11 UNL    0.0000
     22 Fe          2.5190   -4.3630   11.7792 Fe       12 UNL    0.0000
     23 Fe          5.0380   -2.9087    9.4839 Fe       13 UNL    0.0000
     24 O           6.5791   -2.9087    8.0345 O        13 UNL    0.0000
     25 O           4.2675   -1.5741    8.0345 O        14 UNL    0.0000
     26 O           4.2675   -4.2433    8.0345 O        15 UNL    0.0000
     27 Fe          5.0380   -2.9087    6.5835 Fe       16 UNL    0.0000
     28 Fe          5.0380   -2.9087   -0.3025 Fe       17 UNL    0.0000
     29 O           3.4969   -2.9087    1.1469 O        17 UNL    0.0000
     30 O           5.8085   -4.2433    1.1469 O        18 UNL    0.0000
     31 O           5.8086   -1.5741    1.1469 O        19 UNL    0.0000
     32 Fe          5.0380   -2.9087    2.5979 Fe       20 UNL    0.0000
     33 Fe          2.5190   -1.4543   14.0745 Fe       21 UNL    0.0000
     34 O           4.0601   -1.4543   12.6251 O        21 UNL    0.0000
     35 O           1.7485   -0.1197   12.6251 O        22 UNL    0.0000
     36 O           1.7485   -2.7890   12.6251 O        23 UNL    0.0000
     37 Fe          2.5190   -1.4543   11.1741 Fe       24 UNL    0.0000
     38 Fe          2.5190   -1.4543    4.2881 Fe       25 UNL    0.0000
     39 O           0.9779   -1.4543    5.7375 O        25 UNL    0.0000
     40 O           3.2895   -2.7890    5.7375 O        26 UNL    0.0000
     41 O           3.2896   -0.1197    5.7375 O        27 UNL    0.0000
     42 Fe          2.5190   -1.4543    7.1885 Fe       28 UNL    0.0000
     43 O           6.5791    0.0000    3.4438 O        29 UNL    0.0000
     44 Fe          7.5570   -4.3630    4.8932 Fe       30 UNL    0.0000
     45 Fe         10.0760    0.0000    4.8932 Fe       31 UNL    0.0000
     46 O           9.3055   -1.3346    3.4438 O        31 UNL    0.0000
     47 Fe         12.5950   -4.3630    1.9928 Fe       32 UNL    0.0000
     48 O          11.8244   -3.0284    3.4422 O        32 UNL    0.0000
     49 O           9.0981   -4.3630    3.4422 O        33 UNL    0.0000
     50 Fe         10.0760    0.0000    1.9928 Fe       34 UNL    0.0000
     51 Fe         12.5950   -4.3630    8.8788 Fe       35 UNL    0.0000
     52 O          11.0539   -4.3630   10.3282 O        35 UNL    0.0000
     53 Fe         10.0760    0.0000    8.8788 Fe       36 UNL    0.0000
     54 O          10.8466   -1.3346   10.3282 O        36 UNL    0.0000
     55 O           8.3276   -3.0284   10.3282 O        37 UNL    0.0000
     56 Fe         10.0760    0.0000   11.7792 Fe       38 UNL    0.0000
     57 O           8.5349    0.0000   10.3298 O        38 UNL    0.0000
     58 Fe          7.5570   -4.3630   11.7792 Fe       39 UNL    0.0000
     59 Fe         10.0760   -2.9087    9.4839 Fe       40 UNL    0.0000
     60 O          11.6171   -2.9087    8.0345 O        40 UNL    0.0000
     61 O           9.3055   -1.5741    8.0345 O        41 UNL    0.0000
     62 O           9.3055   -4.2433    8.0345 O        42 UNL    0.0000
     63 Fe         10.0760   -2.9087    6.5835 Fe       43 UNL    0.0000
     64 Fe         10.0760   -2.9087   -0.3025 Fe       44 UNL    0.0000
     65 O           8.5349   -2.9087    1.1469 O        44 UNL    0.0000
     66 O          10.8466   -4.2433    1.1469 O        45 UNL    0.0000
     67 O          10.8466   -1.5741    1.1469 O        46 UNL    0.0000
     68 Fe         10.0760   -2.9087    2.5979 Fe       47 UNL    0.0000
     69 Fe          7.5570   -1.4543   14.0745 Fe       48 UNL    0.0000
     70 O           9.0981   -1.4543   12.6251 O        48 UNL    0.0000
     71 O           6.7865   -0.1197   12.6251 O        49 UNL    0.0000
     72 O           6.7865   -2.7890   12.6251 O        50 UNL    0.0000
     73 Fe          7.5570   -1.4543   11.1741 Fe       51 UNL    0.0000
     74 Fe          7.5570   -1.4543    4.2881 Fe       52 UNL    0.0000
     75 O           6.0159   -1.4543    5.7375 O        52 UNL    0.0000
     76 O           8.3275   -2.7890    5.7375 O        53 UNL    0.0000
     77 O           8.3276   -0.1197    5.7375 O        54 UNL    0.0000
     78 Fe          7.5570   -1.4543    7.1885 Fe       55 UNL    0.0000
     79 O          11.6171    0.0000    3.4438 O        56 UNL    0.0000
     80 Fe         12.5950   -4.3630    4.8932 Fe       57 UNL    0.0000
     81 Fe         15.1140    0.0000    4.8932 Fe       58 UNL    0.0000
     82 O          14.3435   -1.3346    3.4438 O        58 UNL    0.0000
     83 Fe         17.6330   -4.3630    1.9928 Fe       59 UNL    0.0000
     84 O          16.8624   -3.0284    3.4422 O        59 UNL    0.0000
     85 O          14.1361   -4.3630    3.4422 O        60 UNL    0.0000
     86 Fe         15.1140    0.0000    1.9928 Fe       61 UNL    0.0000
     87 Fe         17.6330   -4.3630    8.8788 Fe       62 UNL    0.0000
     88 O          16.0919   -4.3630   10.3282 O        62 UNL    0.0000
     89 Fe         15.1140    0.0000    8.8788 Fe       63 UNL    0.0000
     90 O          15.8846   -1.3346   10.3282 O        63 UNL    0.0000
     91 O          13.3656   -3.0284   10.3282 O        64 UNL    0.0000
     92 Fe         15.1140    0.0000   11.7792 Fe       65 UNL    0.0000
     93 O          13.5729    0.0000   10.3298 O        65 UNL    0.0000
     94 Fe         12.5950   -4.3630   11.7792 Fe       66 UNL    0.0000
     95 Fe         15.1140   -2.9087    9.4839 Fe       67 UNL    0.0000
     96 O          16.6551   -2.9087    8.0345 O        67 UNL    0.0000
     97 O          14.3435   -1.5741    8.0345 O        68 UNL    0.0000
     98 O          14.3435   -4.2433    8.0345 O        69 UNL    0.0000
     99 Fe         15.1140   -2.9087    6.5835 Fe       70 UNL    0.0000
    100 Fe         15.1140   -2.9087   -0.3025 Fe       71 UNL    0.0000
    101 O          13.5729   -2.9087    1.1469 O        71 UNL    0.0000
    102 O          15.8846   -4.2433    1.1469 O        72 UNL    0.0000
    103 O          15.8846   -1.5741    1.1469 O        73 UNL    0.0000
    104 Fe         15.1140   -2.9087    2.5979 Fe       74 UNL    0.0000
    105 Fe         12.5950   -1.4543   14.0745 Fe       75 UNL    0.0000
    106 O          14.1361   -1.4543   12.6251 O        75 UNL    0.0000
    107 O          11.8245   -0.1197   12.6251 O        76 UNL    0.0000
    108 O          11.8245   -2.7890   12.6251 O        77 UNL    0.0000
    109 Fe         12.5950   -1.4543   11.1741 Fe       78 UNL    0.0000
    110 Fe         12.5950   -1.4543    4.2881 Fe       79 UNL    0.0000
    111 O          11.0539   -1.4543    5.7375 O        79 UNL    0.0000
    112 O          13.3655   -2.7890    5.7375 O        80 UNL    0.0000
    113 O          13.3656   -0.1197    5.7375 O        81 UNL    0.0000
    114 Fe         12.5950   -1.4543    7.1885 Fe       82 UNL    0.0000
    115 Fe         -2.5190    4.3630    4.8932 Fe       83 UNL    0.0000
    116 O          -0.9779    4.3630    3.4438 O        83 UNL    0.0000
    117 O          -0.7705    1.3346    3.4438 O        84 UNL    0.0000
    118 Fe          2.5190    4.3630    4.8932 Fe       85 UNL    0.0000
    119 O           1.7485    3.0284    3.4438 O        85 UNL    0.0000
    120 O           4.2675    1.3346    3.4422 O        86 UNL    0.0000
    121 Fe          0.0000    0.0000    1.9928 Fe       87 UNL    0.0000
    122 Fe          2.5190    4.3630    1.9928 Fe       88 UNL    0.0000
    123 Fe          2.5190    4.3630    8.8788 Fe       89 UNL    0.0000
    124 O           3.2896    3.0284   10.3282 O        89 UNL    0.0000
    125 Fe          0.0000    0.0000    8.8788 Fe       90 UNL    0.0000
    126 O           0.7706    1.3346   10.3282 O        90 UNL    0.0000
    127 Fe         -2.5190    4.3630   11.7792 Fe       91 UNL    0.0000
    128 O          -1.7484    3.0284   10.3298 O        91 UNL    0.0000
    129 Fe          2.5190    4.3630   11.7792 Fe       92 UNL    0.0000
    130 O           0.9779    4.3630   10.3298 O        92 UNL    0.0000
    131 Fe          2.5190    1.4543    9.4839 Fe       93 UNL    0.0000
    132 O           4.0601    1.4543    8.0345 O        93 UNL    0.0000
    133 O           1.7485    2.7890    8.0345 O        94 UNL    0.0000
    134 O           1.7485    0.1197    8.0345 O        95 UNL    0.0000
    135 Fe          2.5190    1.4543    6.5835 Fe       96 UNL    0.0000
    136 Fe          2.5190    1.4543   -0.3025 Fe       97 UNL    0.0000
    137 O           0.9779    1.4543    1.1469 O        97 UNL    0.0000
    138 O           3.2896    0.1197    1.1469 O        98 UNL    0.0000
    139 O           3.2896    2.7890    1.1469 O        99 UNL    0.0000
    140 Fe          2.5190    1.4543    2.5979 Fe      100 UNL    0.0000
    141 Fe          0.0000    2.9087   14.0745 Fe      101 UNL    0.0000
    142 O           1.5411    2.9087   12.6251 O       101 UNL    0.0000
    143 O          -0.7705    4.2433   12.6251 O       102 UNL    0.0000
    144 O          -0.7705    1.5741   12.6251 O       103 UNL    0.0000
    145 Fe          0.0000    2.9087   11.1741 Fe      104 UNL    0.0000
    146 Fe          0.0000    2.9087    4.2881 Fe      105 UNL    0.0000
    147 O          -1.5411    2.9087    5.7375 O       105 UNL    0.0000
    148 O           0.7706    1.5741    5.7375 O       106 UNL    0.0000
    149 O           0.7706    4.2433    5.7375 O       107 UNL    0.0000
    150 Fe          0.0000    2.9087    7.1885 Fe      108 UNL    0.0000
    151 O           4.0601    4.3630    3.4438 O       109 UNL    0.0000
    152 Fe          7.5570    4.3630    4.8932 Fe      110 UNL    0.0000
    153 O           6.7865    3.0284    3.4438 O       110 UNL    0.0000
    154 O           9.3055    1.3346    3.4422 O       111 UNL    0.0000
    155 Fe          7.5570    4.3630    1.9928 Fe      112 UNL    0.0000
    156 Fe          7.5570    4.3630    8.8788 Fe      113 UNL    0.0000
    157 O           8.3276    3.0284   10.3282 O       113 UNL    0.0000
    158 O           5.8086    1.3346   10.3282 O       114 UNL    0.0000
    159 Fe          7.5570    4.3630   11.7792 Fe      115 UNL    0.0000
    160 O           6.0159    4.3630   10.3298 O       115 UNL    0.0000
    161 Fe          7.5570    1.4543    9.4839 Fe      116 UNL    0.0000
    162 O           9.0981    1.4543    8.0345 O       116 UNL    0.0000
    163 O           6.7865    2.7890    8.0345 O       117 UNL    0.0000
    164 O           6.7865    0.1197    8.0345 O       118 UNL    0.0000
    165 Fe          7.5570    1.4543    6.5835 Fe      119 UNL    0.0000
    166 Fe          7.5570    1.4543   -0.3025 Fe      120 UNL    0.0000
    167 O           6.0159    1.4543    1.1469 O       120 UNL    0.0000
    168 O           8.3276    0.1197    1.1469 O       121 UNL    0.0000
    169 O           8.3276    2.7890    1.1469 O       122 UNL    0.0000
    170 Fe          7.5570    1.4543    2.5979 Fe      123 UNL    0.0000
    171 Fe          5.0380    2.9087   14.0745 Fe      124 UNL    0.0000
    172 O           6.5791    2.9087   12.6251 O       124 UNL    0.0000
    173 O           4.2675    4.2433   12.6251 O       125 UNL    0.0000
    174 O           4.2675    1.5741   12.6251 O       126 UNL    0.0000
    175 Fe          5.0380    2.9087   11.1741 Fe      127 UNL    0.0000
    176 Fe          5.0380    2.9087    4.2881 Fe      128 UNL    0.0000
    177 O           3.4969    2.9087    5.7375 O       128 UNL    0.0000
    178 O           5.8086    1.5741    5.7375 O       129 UNL    0.0000
    179 O           5.8086    4.2433    5.7375 O       130 UNL    0.0000
    180 Fe          5.0380    2.9087    7.1885 Fe      131 UNL    0.0000
    181 O           9.0981    4.3630    3.4438 O       132 UNL    0.0000
    182 Fe         12.5950    4.3630    4.8932 Fe      133 UNL    0.0000
    183 O          11.8245    3.0284    3.4438 O       133 UNL    0.0000
    184 O          14.3435    1.3346    3.4422 O       134 UNL    0.0000
    185 Fe         12.5950    4.3630    1.9928 Fe      135 UNL    0.0000
    186 Fe         12.5950    4.3630    8.8788 Fe      136 UNL    0.0000
    187 O          13.3656    3.0284   10.3282 O       136 UNL    0.0000
    188 O          10.8466    1.3346   10.3282 O       137 UNL    0.0000
    189 Fe         12.5950    4.3630   11.7792 Fe      138 UNL    0.0000
    190 O          11.0539    4.3630   10.3298 O       138 UNL    0.0000
    191 Fe         12.5950    1.4543    9.4839 Fe      139 UNL    0.0000
    192 O          14.1361    1.4543    8.0345 O       139 UNL    0.0000
    193 O          11.8245    2.7890    8.0345 O       140 UNL    0.0000
    194 O          11.8245    0.1197    8.0345 O       141 UNL    0.0000
    195 Fe         12.5950    1.4543    6.5835 Fe      142 UNL    0.0000
    196 Fe         12.5950    1.4543   -0.3025 Fe      143 UNL    0.0000
    197 O          11.0539    1.4543    1.1469 O       143 UNL    0.0000
    198 O          13.3656    0.1197    1.1469 O       144 UNL    0.0000
    199 O          13.3656    2.7890    1.1469 O       145 UNL    0.0000
    200 Fe         12.5950    1.4543    2.5979 Fe      146 UNL    0.0000
    201 Fe         10.0760    2.9087   14.0745 Fe      147 UNL    0.0000
    202 O          11.6171    2.9087   12.6251 O       147 UNL    0.0000
    203 O           9.3055    4.2433   12.6251 O       148 UNL    0.0000
    204 O           9.3055    1.5741   12.6251 O       149 UNL    0.0000
    205 Fe         10.0760    2.9087   11.1741 Fe      150 UNL    0.0000
    206 Fe         10.0760    2.9087    4.2881 Fe      151 UNL    0.0000
    207 O           8.5349    2.9087    5.7375 O       151 UNL    0.0000
    208 O          10.8466    1.5741    5.7375 O       152 UNL    0.0000
    209 O          10.8466    4.2433    5.7375 O       153 UNL    0.0000
    210 Fe         10.0760    2.9087    7.1885 Fe      154 UNL    0.0000
    211 Fe         -5.0380    8.7261    4.8932 Fe      155 UNL    0.0000
    212 O          -3.4969    8.7261    3.4438 O       155 UNL    0.0000
    213 O          -3.2895    5.6977    3.4438 O       156 UNL    0.0000
    214 Fe          0.0000    8.7261    4.8932 Fe      157 UNL    0.0000
    215 O          -0.7705    7.3914    3.4438 O       157 UNL    0.0000
    216 O           1.7485    5.6977    3.4422 O       158 UNL    0.0000
    217 Fe         -2.5190    4.3630    1.9928 Fe      159 UNL    0.0000
    218 Fe          0.0000    8.7261    1.9928 Fe      160 UNL    0.0000
    219 Fe          0.0000    8.7261    8.8788 Fe      161 UNL    0.0000
    220 O           0.7706    7.3914   10.3282 O       161 UNL    0.0000
    221 Fe         -2.5190    4.3630    8.8788 Fe      162 UNL    0.0000
    222 O          -1.7484    5.6977   10.3282 O       162 UNL    0.0000
    223 Fe         -5.0380    8.7261   11.7792 Fe      163 UNL    0.0000
    224 O          -4.2674    7.3914   10.3298 O       163 UNL    0.0000
    225 Fe          0.0000    8.7261   11.7792 Fe      164 UNL    0.0000
    226 O          -1.5411    8.7261   10.3298 O       164 UNL    0.0000
    227 Fe          0.0000    5.8174    9.4839 Fe      165 UNL    0.0000
    228 O           1.5411    5.8174    8.0345 O       165 UNL    0.0000
    229 O          -0.7705    7.1520    8.0345 O       166 UNL    0.0000
    230 O          -0.7705    4.4827    8.0345 O       167 UNL    0.0000
    231 Fe          0.0000    5.8174    6.5835 Fe      168 UNL    0.0000
    232 Fe          0.0000    5.8174   -0.3025 Fe      169 UNL    0.0000
    233 O          -1.5411    5.8174    1.1469 O       169 UNL    0.0000
    234 O           0.7706    4.4827    1.1469 O       170 UNL    0.0000
    235 O           0.7706    7.1520    1.1469 O       171 UNL    0.0000
    236 Fe          0.0000    5.8174    2.5979 Fe      172 UNL    0.0000
    237 Fe         -2.5190    7.2717   14.0745 Fe      173 UNL    0.0000
    238 O          -0.9779    7.2717   12.6251 O       173 UNL    0.0000
    239 O          -3.2895    8.6064   12.6251 O       174 UNL    0.0000
    240 O          -3.2895    5.9371   12.6251 O       175 UNL    0.0000
    241 Fe         -2.5190    7.2717   11.1741 Fe      176 UNL    0.0000
    242 Fe         -2.5190    7.2717    4.2881 Fe      177 UNL    0.0000
    243 O          -4.0601    7.2717    5.7375 O       177 UNL    0.0000
    244 O          -1.7484    5.9371    5.7375 O       178 UNL    0.0000
    245 O          -1.7484    8.6064    5.7375 O       179 UNL    0.0000
    246 Fe         -2.5190    7.2717    7.1885 Fe      180 UNL    0.0000
    247 O           1.5411    8.7261    3.4438 O       181 UNL    0.0000
    248 Fe          5.0380    8.7261    4.8932 Fe      182 UNL    0.0000
    249 O           4.2675    7.3914    3.4438 O       182 UNL    0.0000
    250 O           6.7865    5.6977    3.4422 O       183 UNL    0.0000
    251 Fe          5.0380    8.7261    1.9928 Fe      184 UNL    0.0000
    252 Fe          5.0380    8.7261    8.8788 Fe      185 UNL    0.0000
    253 O           5.8086    7.3914   10.3282 O       185 UNL    0.0000
    254 O           3.2896    5.6977   10.3282 O       186 UNL    0.0000
    255 Fe          5.0380    8.7261   11.7792 Fe      187 UNL    0.0000
    256 O           3.4969    8.7261   10.3298 O       187 UNL    0.0000
    257 Fe          5.0380    5.8174    9.4839 Fe      188 UNL    0.0000
    258 O           6.5791    5.8174    8.0345 O       188 UNL    0.0000
    259 O           4.2675    7.1520    8.0345 O       189 UNL    0.0000
    260 O           4.2675    4.4827    8.0345 O       190 UNL    0.0000
    261 Fe          5.0380    5.8174    6.5835 Fe      191 UNL    0.0000
    262 Fe          5.0380    5.8174   -0.3025 Fe      192 UNL    0.0000
    263 O           3.4969    5.8174    1.1469 O       192 UNL    0.0000
    264 O           5.8086    4.4827    1.1469 O       193 UNL    0.0000
    265 O           5.8086    7.1520    1.1469 O       194 UNL    0.0000
    266 Fe          5.0380    5.8174    2.5979 Fe      195 UNL    0.0000
    267 Fe          2.5190    7.2717   14.0745 Fe      196 UNL    0.0000
    268 O           4.0601    7.2717   12.6251 O       196 UNL    0.0000
    269 O           1.7485    8.6064   12.6251 O       197 UNL    0.0000
    270 O           1.7485    5.9371   12.6251 O       198 UNL    0.0000
    271 Fe          2.5190    7.2717   11.1741 Fe      199 UNL    0.0000
    272 Fe          2.5190    7.2717    4.2881 Fe      200 UNL    0.0000
    273 O           0.9779    7.2717    5.7375 O       200 UNL    0.0000
    274 O           3.2896    5.9371    5.7375 O       201 UNL    0.0000
    275 O           3.2896    8.6064    5.7375 O       202 UNL    0.0000
    276 Fe          2.5190    7.2717    7.1885 Fe      203 UNL    0.0000
    277 O           6.5791    8.7261    3.4438 O       204 UNL    0.0000
    278 Fe         10.0760    8.7261    4.8932 Fe      205 UNL    0.0000
    279 O           9.3055    7.3914    3.4438 O       205 UNL    0.0000
    280 O          11.8245    5.6977    3.4422 O       206 UNL    0.0000
    281 Fe         10.0760    8.7261    1.9928 Fe      207 UNL    0.0000
    282 Fe         10.0760    8.7261    8.8788 Fe      208 UNL    0.0000
    283 O          10.8466    7.3914   10.3282 O       208 UNL    0.0000
    284 O           8.3276    5.6977   10.3282 O       209 UNL    0.0000
    285 Fe         10.0760    8.7261   11.7792 Fe      210 UNL    0.0000
    286 O           8.5349    8.7261   10.3298 O       210 UNL    0.0000
    287 Fe         10.0760    5.8174    9.4839 Fe      211 UNL    0.0000
    288 O          11.6171    5.8174    8.0345 O       211 UNL    0.0000
    289 O           9.3055    7.1520    8.0345 O       212 UNL    0.0000
    290 O           9.3055    4.4827    8.0345 O       213 UNL    0.0000
    291 Fe         10.0760    5.8174    6.5835 Fe      214 UNL    0.0000
    292 Fe         10.0760    5.8174   -0.3025 Fe      215 UNL    0.0000
    293 O           8.5349    5.8174    1.1469 O       215 UNL    0.0000
    294 O          10.8466    4.4827    1.1469 O       216 UNL    0.0000
    295 O          10.8466    7.1520    1.1469 O       217 UNL    0.0000
    296 Fe         10.0760    5.8174    2.5979 Fe      218 UNL    0.0000
    297 Fe          7.5570    7.2717   14.0745 Fe      219 UNL    0.0000
    298 O           9.0981    7.2717   12.6251 O       219 UNL    0.0000
    299 O           6.7865    8.6064   12.6251 O       220 UNL    0.0000
    300 O           6.7865    5.9371   12.6251 O       221 UNL    0.0000
    301 Fe          7.5570    7.2717   11.1741 Fe      222 UNL    0.0000
    302 Fe          7.5570    7.2717    4.2881 Fe      223 UNL    0.0000
    303 O           6.0159    7.2717    5.7375 O       223 UNL    0.0000
    304 O           8.3276    5.9371    5.7375 O       224 UNL    0.0000
    305 O           8.3276    8.6064    5.7375 O       225 UNL    0.0000
    306 Fe          7.5570    7.2717    7.1885 Fe      226 UNL    0.0000
@<TRIPOS>BOND
     1    1    2 1
     2    1   39 1
     3    1  117 1
     4    1  148 1
     5    2   38 1
     6    2  121 1
     7    2  140 1
     8    3    4 1
     9    3   10 1
    10    3   40 1
    11    4    9 1
    12    4   38 1
    13    5    6 1
    14    5   41 1
    15    5   43 1
    16    5   75 1
    17    5  120 1
    18    5  178 1
    19    6   11 1
    20    6   32 1
    21    6   38 1
    22    7    8 1
    23    7   30 1
    24    7   49 1
    25    7   65 1
    26    8   32 1
    27    8   44 1
    28    8   74 1
    29    9   10 1
    30    9   29 1
    31   10   32 1
    32   11   31 1
    33   11   43 1
    34   11  120 1
    35   11  138 1
    36   11  167 1
    37   12   13 1
    38   12   24 1
    39   12   55 1
    40   12   62 1
    41   13   23 1
    42   13   58 1
    43   14   15 1
    44   14   21 1
    45   14   25 1
    46   14  132 1
    47   14  158 1
    48   14  164 1
    49   15   20 1
    50   15   23 1
    51   15   73 1
    52   16   17 1
    53   16   26 1
    54   17   22 1
    55   17   23 1
    56   17   37 1
    57   18   19 1
    58   18   35 1
    59   18  126 1
    60   18  144 1
    61   19   37 1
    62   19  125 1
    63   20   21 1
    64   20   34 1
    65   20   71 1
    66   20  158 1
    67   20  174 1
    68   21   37 1
    69   21  131 1
    70   22   36 1
    71   23   24 1
    72   23   25 1
    73   23   26 1
    74   24   27 1
    75   24   78 1
    76   25   27 1
    77   25   42 1
    78   26   27 1
    79   27   40 1
    80   27   75 1
    81   28   29 1
    82   28   30 1
    83   28   31 1
    84   29   32 1
    85   30   32 1
    86   31   32 1
    87   33   34 1
    88   33   35 1
    89   33   36 1
    90   34   37 1
    91   35   37 1
    92   36   37 1
    93   38   39 1
    94   38   40 1
    95   38   41 1
    96   39   42 1
    97   40   42 1
    98   41   42 1
    99   41  135 1
   100   42  134 1
   101   43   74 1
   102   43  170 1
   103   44   49 1
   104   44   76 1
   105   45   46 1
   106   45   77 1
   107   45   79 1
   108   45  111 1
   109   45  154 1
   110   45  208 1
   111   46   50 1
   112   46   68 1
   113   46   74 1
   114   47   48 1
   115   47   66 1
   116   47   85 1
   117   47  101 1
   118   48   68 1
   119   48   80 1
   120   48  110 1
   121   49   68 1
   122   50   67 1
   123   50   79 1
   124   50  154 1
   125   50  168 1
   126   50  197 1
   127   51   52 1
   128   51   60 1
   129   51   91 1
   130   51   98 1
   131   52   59 1
   132   52   94 1
   133   53   54 1
   134   53   57 1
   135   53   61 1
   136   53  162 1
   137   53  188 1
   138   53  194 1
   139   54   56 1
   140   54   59 1
   141   54  109 1
   142   55   58 1
   143   55   59 1
   144   55   73 1
   145   56   57 1
   146   56   70 1
   147   56  107 1
   148   56  188 1
   149   56  204 1
   150   57   73 1
   151   57  161 1
   152   58   72 1
   153   59   60 1
   154   59   61 1
   155   59   62 1
   156   60   63 1
   157   60  114 1
   158   61   63 1
   159   61   78 1
   160   62   63 1
   161   63   76 1
   162   63  111 1
   163   64   65 1
   164   64   66 1
   165   64   67 1
   166   65   68 1
   167   66   68 1
   168   67   68 1
   169   69   70 1
   170   69   71 1
   171   69   72 1
   172   70   73 1
   173   71   73 1
   174   72   73 1
   175   74   75 1
   176   74   76 1
   177   74   77 1
   178   75   78 1
   179   76   78 1
   180   77   78 1
   181   77  165 1
   182   78  164 1
   183   79  110 1
   184   79  200 1
   185   80   85 1
   186   80  112 1
   187   81   82 1
   188   81  113 1
   189   81  184 1
   190   82   86 1
   191   82  104 1
   192   82  110 1
   193   83   84 1
   194   83  102 1
   195   84  104 1
   196   85  104 1
   197   86  103 1
   198   86  184 1
   199   86  198 1
   200   87   88 1
   201   87   96 1
   202   88   95 1
   203   89   90 1
   204   89   93 1
   205   89   97 1
   206   89  192 1
   207   90   92 1
   208   90   95 1
   209   91   94 1
   210   91   95 1
   211   91  109 1
   212   92   93 1
   213   92  106 1
   214   93  109 1
   215   93  191 1
   216   94  108 1
   217   95   96 1
   218   95   97 1
   219   95   98 1
   220   96   99 1
   221   97   99 1
   222   97  114 1
   223   98   99 1
   224   99  112 1
   225  100  101 1
   226  100  102 1
   227  100  103 1
   228  101  104 1
   229  102  104 1
   230  103  104 1
   231  105  106 1
   232  105  107 1
   233  105  108 1
   234  106  109 1
   235  107  109 1
   236  108  109 1
   237  110  111 1
   238  110  112 1
   239  110  113 1
   240  111  114 1
   241  112  114 1
   242  113  114 1
   243  113  195 1
   244  114  194 1
   245  115  116 1
   246  115  147 1
   247  115  213 1
   248  115  244 1
   249  116  146 1
   250  116  217 1
   251  116  236 1
   252  117  121 1
   253  117  146 1
   254  118  119 1
   255  118  149 1
   256  118  151 1
   257  118  177 1
   258  118  216 1
   259  118  274 1
   260  119  122 1
   261  119  140 1
   262  119  146 1
   263  120  140 1
   264  120  176 1
   265  121  137 1
   266  122  139 1
   267  122  151 1
   268  122  216 1
   269  122  234 1
   270  122  263 1
   271  123  124 1
   272  123  130 1
   273  123  133 1
   274  123  228 1
   275  123  254 1
   276  123  260 1
   277  124  129 1
   278  124  131 1
   279  124  175 1
   280  125  126 1
   281  125  134 1
   282  126  131 1
   283  126  145 1
   284  127  128 1
   285  127  143 1
   286  127  222 1
   287  127  240 1
   288  128  145 1
   289  128  221 1
   290  129  130 1
   291  129  142 1
   292  129  173 1
   293  129  254 1
   294  129  270 1
   295  130  145 1
   296  130  227 1
   297  131  132 1
   298  131  133 1
   299  131  134 1
   300  132  135 1
   301  132  180 1
   302  133  135 1
   303  133  150 1
   304  134  135 1
   305  135  148 1
   306  135  177 1
   307  136  137 1
   308  136  138 1
   309  136  139 1
   310  137  140 1
   311  138  140 1
   312  139  140 1
   313  141  142 1
   314  141  143 1
   315  141  144 1
   316  142  145 1
   317  143  145 1
   318  144  145 1
   319  146  147 1
   320  146  148 1
   321  146  149 1
   322  147  150 1
   323  148  150 1
   324  149  150 1
   325  149  231 1
   326  150  230 1
   327  151  176 1
   328  151  266 1
   329  152  153 1
   330  152  179 1
   331  152  181 1
   332  152  207 1
   333  152  250 1
   334  152  304 1
   335  153  155 1
   336  153  170 1
   337  153  176 1
   338  154  170 1
   339  154  206 1
   340  155  169 1
   341  155  181 1
   342  155  250 1
   343  155  264 1
   344  155  293 1
   345  156  157 1
   346  156  160 1
   347  156  163 1
   348  156  258 1
   349  156  284 1
   350  156  290 1
   351  157  159 1
   352  157  161 1
   353  157  205 1
   354  158  161 1
   355  158  175 1
   356  159  160 1
   357  159  172 1
   358  159  203 1
   359  159  284 1
   360  159  300 1
   361  160  175 1
   362  160  257 1
   363  161  162 1
   364  161  163 1
   365  161  164 1
   366  162  165 1
   367  162  210 1
   368  163  165 1
   369  163  180 1
   370  164  165 1
   371  165  178 1
   372  165  207 1
   373  166  167 1
   374  166  168 1
   375  166  169 1
   376  167  170 1
   377  168  170 1
   378  169  170 1
   379  171  172 1
   380  171  173 1
   381  171  174 1
   382  172  175 1
   383  173  175 1
   384  174  175 1
   385  176  177 1
   386  176  178 1
   387  176  179 1
   388  177  180 1
   389  178  180 1
   390  179  180 1
   391  179  261 1
   392  180  260 1
   393  181  206 1
   394  181  296 1
   395  182  183 1
   396  182  209 1
   397  182  280 1
   398  183  185 1
   399  183  200 1
   400  183  206 1
   401  184  200 1
   402  185  199 1
   403  185  280 1
   404  185  294 1
   405  186  187 1
   406  186  190 1
   407  186  193 1
   408  186  288 1
   409  187  189 1
   410  187  191 1
   411  188  191 1
   412  188  205 1
   413  189  190 1
   414  189  202 1
   415  190  205 1
   416  190  287 1
   417  191  192 1
   418  191  193 1
   419  191  194 1
   420  192  195 1
   421  193  195 1
   422  193  210 1
   423  194  195 1
   424  195  208 1
   425  196  197 1
   426  196  198 1
   427  196  199 1
   428  197  200 1
   429  198  200 1
   430  199  200 1
   431  201  202 1
   432  201  203 1
   433  201  204 1
   434  202  205 1
   435  203  205 1
   436  204  205 1
   437  206  207 1
   438  206  208 1
   439  206  209 1
   440  207  210 1
   441  208  210 1
   442  209  210 1
   443  209  291 1
   444  210  290 1
   445  211  212 1
   446  211  243 1
   447  212  242 1
   448  213  217 1
   449  213  242 1
   450  214  215 1
   451  214  245 1
   452  214  247 1
   453  214  273 1
   454  215  218 1
   455  215  236 1
   456  215  242 1
   457  216  236 1
   458  216  272 1
   459  217  233 1
   460  218  235 1
   461  218  247 1
   462  219  220 1
   463  219  226 1
   464  219  229 1
   465  220  225 1
   466  220  227 1
   467  220  271 1
   468  221  222 1
   469  221  230 1
   470  222  227 1
   471  222  241 1
   472  223  224 1
   473  223  239 1
   474  224  241 1
   475  225  226 1
   476  225  238 1
   477  225  269 1
   478  226  241 1
   479  227  228 1
   480  227  229 1
   481  227  230 1
   482  228  231 1
   483  228  276 1
   484  229  231 1
   485  229  246 1
   486  230  231 1
   487  231  244 1
   488  231  273 1
   489  232  233 1
   490  232  234 1
   491  232  235 1
   492  233  236 1
   493  234  236 1
   494  235  236 1
   495  237  238 1
   496  237  239 1
   497  237  240 1
   498  238  241 1
   499  239  241 1
   500  240  241 1
   501  242  243 1
   502  242  244 1
   503  242  245 1
   504  243  246 1
   505  244  246 1
   506  245  246 1
   507  247  272 1
   508  248  249 1
   509  248  275 1
   510  248  277 1
   511  248  303 1
   512  249  251 1
   513  249  266 1
   514  249  272 1
   515  250  266 1
   516  250  302 1
   517  251  265 1
   518  251  277 1
   519  252  253 1
   520  252  256 1
   521  252  259 1
   522  253  255 1
   523  253  257 1
   524  253  301 1
   525  254  257 1
   526  254  271 1
   527  255  256 1
   528  255  268 1
   529  255  299 1
   530  256  271 1
   531  257  258 1
   532  257  259 1
   533  257  260 1
   534  258  261 1
   535  258  306 1
   536  259  261 1
   537  259  276 1
   538  260  261 1
   539  261  274 1
   540  261  303 1
   541  262  263 1
   542  262  264 1
   543  262  265 1
   544  263  266 1
   545  264  266 1
   546  265  266 1
   547  267  268 1
   548  267  269 1
   549  267  270 1
   550  268  271 1
   551  269  271 1
   552  270  271 1
   553  272  273 1
   554  272  274 1
   555  272  275 1
   556  273  276 1
   557  274  276 1
   558  275  276 1
   559  277  302 1
   560  278  279 1
   561  278  305 1
   562  279  281 1
   563  279  296 1
   564  279  302 1
   565  280  296 1
   566  281  295 1
   567  282  283 1
   568  282  286 1
   569  282  289 1
   570  283  285 1
   571  283  287 1
   572  284  287 1
   573  284  301 1
   574  285  286 1
   575  285  298 1
   576  286  301 1
   577  287  288 1
   578  287  289 1
   579  287  290 1
   580  288  291 1
   581  289  291 1
   582  289  306 1
   583  290  291 1
   584  291  304 1
   585  292  293 1
   586  292  294 1
   587  292  295 1
   588  293  296 1
   589  294  296 1
   590  295  296 1
   591  297  298 1
   592  297  299 1
   593  297  300 1
   594  298  301 1
   595  299  301 1
   596  300  301 1
   597  302  303 1
   598  302  304 1
   599  302  305 1
   600  303  306 1
   601  304  306 1
   602  305  306 1
@<TRIPOS>SUBSTRUCTURE
     1 UNL     1 RESIDUE           4 A     UNL     6 ROOT
     2 UNL     3 RESIDUE           4 B     UNL     4 ROOT
     3 UNL     5 RESIDUE           4 C     UNL     8 ROOT
     4 UNL     7 RESIDUE           4 D     UNL     6 ROOT
     5 UNL     9 RESIDUE           4 E     UNL     4 ROOT
     6 UNL    11 RESIDUE           4 F     UNL     6 ROOT
     7 UNL    12 RESIDUE           4 G     UNL     5 ROOT
     8 UNL    14 RESIDUE           4 H     UNL     8 ROOT
     9 UNL    16 RESIDUE           4 I     UNL     4 ROOT
    10 UNL    18 RESIDUE           4 J     UNL     5 ROOT
    11 UNL    20 RESIDUE           4 K     UNL     8 ROOT
    12 UNL    22 RESIDUE           4 L     UNL     2 ROOT
    13 UNL    23 RESIDUE           4 M     UNL     8 ROOT
    14 UNL    25 RESIDUE           4 N     UNL     4 ROOT
    15 UNL    26 RESIDUE           4 O     UNL     3 ROOT
    16 UNL    27 RESIDUE           4 P     UNL     5 ROOT
    17 UNL    28 RESIDUE           4 S     UNL     4 ROOT
    18 UNL    30 RESIDUE           4 T     UNL     3 ROOT
    19 UNL    31 RESIDUE           4 U     UNL     3 ROOT
    20 UNL    32 RESIDUE           4 V     UNL     6 ROOT
    21 UNL    33 RESIDUE           4 Y     UNL     4 ROOT
    22 UNL    35 RESIDUE           4 Z     UNL     3 ROOT
    23 UNL    36 RESIDUE           4 a     UNL     3 ROOT
    24 UNL    37 RESIDUE           4 b     UNL     6 ROOT
    25 UNL    38 RESIDUE           4 e     UNL     7 ROOT
    26 UNL    40 RESIDUE           4 f     UNL     4 ROOT
    27 UNL    41 RESIDUE           4 g     UNL     4 ROOT
    28 UNL    42 RESIDUE           4 h     UNL     5 ROOT
    29 UNL    43 RESIDUE           4 k     UNL     4 ROOT
    30 UNL    44 RESIDUE           4 l     UNL     3 ROOT
    31 UNL    45 RESIDUE           4 m     UNL     8 ROOT
    32 UNL    47 RESIDUE           4 n     UNL     6 ROOT
    33 UNL    49 RESIDUE           4 o     UNL     3 ROOT
    34 UNL    50 RESIDUE           4 p     UNL     6 ROOT
    35 UNL    51 RESIDUE           4 q     UNL     5 ROOT
    36 UNL    53 RESIDUE           4 r     UNL     8 ROOT
    37 UNL    55 RESIDUE           4 s     UNL     4 ROOT
    38 UNL    56 RESIDUE           4 u     UNL     8 ROOT
    39 UNL    58 RESIDUE           4 v     UNL     3 ROOT
    40 UNL    59 RESIDUE           4 w     UNL     8 ROOT
    41 UNL    61 RESIDUE           4 x     UNL     4 ROOT
    42 UNL    62 RESIDUE           4 y     UNL     3 ROOT
    43 UNL    63 RESIDUE           4 z     UNL     5 ROOT
    44 UNL    64 RESIDUE           4 3     UNL     4 ROOT
    45 UNL    66 RESIDUE           4 4     UNL     3 ROOT
    46 UNL    67 RESIDUE           4 5     UNL     3 ROOT
    47 UNL    68 RESIDUE           4 6     UNL     6 ROOT
    48 UNL    69 RESIDUE           4 9     UNL     4 ROOT
    49 UNL    71 RESIDUE           4 0     UNL     3 ROOT
    50 UNL    72 RESIDUE           4 0A    UNL     3 ROOT
    51 UNL    73 RESIDUE           4 0B    UNL     6 ROOT
    52 UNL    74 RESIDUE           4 0E    UNL     8 ROOT
    53 UNL    76 RESIDUE           4 0F    UNL     4 ROOT
    54 UNL    77 RESIDUE           4 0G    UNL     4 ROOT
    55 UNL    78 RESIDUE           4 0H    UNL     6 ROOT
    56 UNL    79 RESIDUE           4 0K    UNL     4 ROOT
    57 UNL    80 RESIDUE           4 0L    UNL     3 ROOT
    58 UNL    81 RESIDUE           4 0M    UNL     5 ROOT
    59 UNL    83 RESIDUE           4 0N    UNL     2 ROOT
    60 UNL    85 RESIDUE           4 0O    UNL     3 ROOT
    61 UNL    86 RESIDUE           4 0P    UNL     4 ROOT
    62 UNL    87 RESIDUE           4 0Q    UNL     2 ROOT
    63 UNL    89 RESIDUE           4 0R    UNL     5 ROOT
    64 UNL    91 RESIDUE           4 0S    UNL     4 ROOT
    65 UNL    92 RESIDUE           4 0U    UNL     5 ROOT
    66 UNL    94 RESIDUE           4 0V    UNL     3 ROOT
    67 UNL    95 RESIDUE           4 0W    UNL     7 ROOT
    68 UNL    97 RESIDUE           4 0X    UNL     4 ROOT
    69 UNL    98 RESIDUE           4 0Y    UNL     3 ROOT
    70 UNL    99 RESIDUE           4 0Z    UNL     4 ROOT
    71 UNL   100 RESIDUE           4 0c    UNL     4 ROOT
    72 UNL   102 RESIDUE           4 0d    UNL     3 ROOT
    73 UNL   103 RESIDUE           4 0e    UNL     3 ROOT
    74 UNL   104 RESIDUE           4 0f    UNL     6 ROOT
    75 UNL   105 RESIDUE           4 0i    UNL     4 ROOT
    76 UNL   107 RESIDUE           4 0j    UNL     3 ROOT
    77 UNL   108 RESIDUE           4 0k    UNL     3 ROOT
    78 UNL   109 RESIDUE           4 0l    UNL     6 ROOT
    79 UNL   110 RESIDUE           4 0o    UNL     8 ROOT
    80 UNL   112 RESIDUE           4 0p    UNL     4 ROOT
    81 UNL   113 RESIDUE           4 0q    UNL     4 ROOT
    82 UNL   114 RESIDUE           4 0r    UNL     6 ROOT
    83 UNL   115 RESIDUE           4 0u    UNL     6 ROOT
    84 UNL   117 RESIDUE           4 0v    UNL     3 ROOT
    85 UNL   118 RESIDUE           4 0w    UNL     8 ROOT
    86 UNL   120 RESIDUE           4 0x    UNL     4 ROOT
    87 UNL   121 RESIDUE           4 0y    UNL     3 ROOT
    88 UNL   122 RESIDUE           4 0z    UNL     6 ROOT
    89 UNL   123 RESIDUE           4 02    UNL     8 ROOT
    90 UNL   125 RESIDUE           4 03    UNL     5 ROOT
    91 UNL   127 RESIDUE           4 04    UNL     5 ROOT
    92 UNL   129 RESIDUE           4 05    UNL     8 ROOT
    93 UNL   131 RESIDUE           4 07    UNL     8 ROOT
    94 UNL   133 RESIDUE           4 08    UNL     4 ROOT
    95 UNL   134 RESIDUE           4 09    UNL     4 ROOT
    96 UNL   135 RESIDUE           4 00    UNL     6 ROOT
    97 UNL   136 RESIDUE           4 00C   UNL     4 ROOT
    98 UNL   138 RESIDUE           4 00D   UNL     3 ROOT
    99 UNL   139 RESIDUE           4 00E   UNL     3 ROOT
   100 UNL   140 RESIDUE           4 00F   UNL     6 ROOT
   101 UNL   141 RESIDUE           4 00I   UNL     4 ROOT
   102 UNL   143 RESIDUE           4 00J   UNL     3 ROOT
   103 UNL   144 RESIDUE           4 00K   UNL     3 ROOT
   104 UNL   145 RESIDUE           4 00L   UNL     6 ROOT
   105 UNL   146 RESIDUE           4 00O   UNL     7 ROOT
   106 UNL   148 RESIDUE           4 00P   UNL     4 ROOT
   107 UNL   149 RESIDUE           4 00Q   UNL     4 ROOT
   108 UNL   150 RESIDUE           4 00R   UNL     5 ROOT
   109 UNL   151 RESIDUE           4 00U   UNL     4 ROOT
   110 UNL   152 RESIDUE           4 00W   UNL     8 ROOT
   111 UNL   154 RESIDUE           4 00X   UNL     4 ROOT
   112 UNL   155 RESIDUE           4 00Z   UNL     6 ROOT
   113 UNL   156 RESIDUE           4 00b   UNL     8 ROOT
   114 UNL   158 RESIDUE           4 00c   UNL     4 ROOT
   115 UNL   159 RESIDUE           4 00e   UNL     8 ROOT
   116 UNL   161 RESIDUE           4 00g   UNL     8 ROOT
   117 UNL   163 RESIDUE           4 00h   UNL     4 ROOT
   118 UNL   164 RESIDUE           4 00i   UNL     4 ROOT
   119 UNL   165 RESIDUE           4 00j   UNL     6 ROOT
   120 UNL   166 RESIDUE           4 00m   UNL     4 ROOT
   121 UNL   168 RESIDUE           4 00n   UNL     3 ROOT
   122 UNL   169 RESIDUE           4 00o   UNL     3 ROOT
   123 UNL   170 RESIDUE           4 00p   UNL     6 ROOT
   124 UNL   171 RESIDUE           4 00s   UNL     4 ROOT
   125 UNL   173 RESIDUE           4 00t   UNL     3 ROOT
   126 UNL   174 RESIDUE           4 00u   UNL     3 ROOT
   127 UNL   175 RESIDUE           4 00v   UNL     6 ROOT
   128 UNL   176 RESIDUE           4 00y   UNL     8 ROOT
   129 UNL   178 RESIDUE           4 00z   UNL     4 ROOT
   130 UNL   179 RESIDUE           4 001   UNL     4 ROOT
   131 UNL   180 RESIDUE           4 002   UNL     6 ROOT
   132 UNL   181 RESIDUE           4 005   UNL     4 ROOT
   133 UNL   182 RESIDUE           4 007   UNL     5 ROOT
   134 UNL   184 RESIDUE           4 008   UNL     3 ROOT
   135 UNL   185 RESIDUE           4 000   UNL     4 ROOT
   136 UNL   186 RESIDUE           4 000B  UNL     5 ROOT
   137 UNL   188 RESIDUE           4 000C  UNL     4 ROOT
   138 UNL   189 RESIDUE           4 000E  UNL     5 ROOT
   139 UNL   191 RESIDUE           4 000G  UNL     7 ROOT
   140 UNL   193 RESIDUE           4 000H  UNL     4 ROOT
   141 UNL   194 RESIDUE           4 000I  UNL     4 ROOT
   142 UNL   195 RESIDUE           4 000J  UNL     5 ROOT
   143 UNL   196 RESIDUE           4 000M  UNL     4 ROOT
   144 UNL   198 RESIDUE           4 000N  UNL     3 ROOT
   145 UNL   199 RESIDUE           4 000O  UNL     3 ROOT
   146 UNL   200 RESIDUE           4 000P  UNL     6 ROOT
   147 UNL   201 RESIDUE           4 000S  UNL     4 ROOT
   148 UNL   203 RESIDUE           4 000T  UNL     3 ROOT
   149 UNL   204 RESIDUE           4 000U  UNL     3 ROOT
   150 UNL   205 RESIDUE           4 000V  UNL     6 ROOT
   151 UNL   206 RESIDUE           4 000Y  UNL     8 ROOT
   152 UNL   208 RESIDUE           4 000Z  UNL     4 ROOT
   153 UNL   209 RESIDUE           4 000a  UNL     4 ROOT
   154 UNL   210 RESIDUE           4 000b  UNL     6 ROOT
   155 UNL   211 RESIDUE           4 000e  UNL     2 ROOT
   156 UNL   213 RESIDUE           4 000f  UNL     3 ROOT
   157 UNL   214 RESIDUE           4 000g  UNL     6 ROOT
   158 UNL   216 RESIDUE           4 000h  UNL     4 ROOT
   159 UNL   217 RESIDUE           4 000i  UNL     3 ROOT
   160 UNL   218 RESIDUE           4 000j  UNL     3 ROOT
   161 UNL   219 RESIDUE           4 000l  UNL     5 ROOT
   162 UNL   221 RESIDUE           4 000m  UNL     5 ROOT
   163 UNL   223 RESIDUE           4 000n  UNL     2 ROOT
   164 UNL   225 RESIDUE           4 000o  UNL     5 ROOT
   165 UNL   227 RESIDUE           4 000q  UNL     8 ROOT
   166 UNL   229 RESIDUE           4 000r  UNL     4 ROOT
   167 UNL   230 RESIDUE           4 000s  UNL     4 ROOT
   168 UNL   231 RESIDUE           4 000t  UNL     6 ROOT
   169 UNL   232 RESIDUE           4 000w  UNL     4 ROOT
   170 UNL   234 RESIDUE           4 000x  UNL     3 ROOT
   171 UNL   235 RESIDUE           4 000y  UNL     3 ROOT
   172 UNL   236 RESIDUE           4 000z  UNL     6 ROOT
   173 UNL   237 RESIDUE           4 0003  UNL     4 ROOT
   174 UNL   239 RESIDUE           4 0004  UNL     3 ROOT
   175 UNL   240 RESIDUE           4 0005  UNL     3 ROOT
   176 UNL   241 RESIDUE           4 0006  UNL     6 ROOT
   177 UNL   242 RESIDUE           4 0009  UNL     7 ROOT
   178 UNL   244 RESIDUE           4 0000  UNL     4 ROOT
   179 UNL   245 RESIDUE           4 0000A  UNL     3 ROOT
   180 UNL   246 RESIDUE           4 0000B  UNL     4 ROOT
   181 UNL   247 RESIDUE           4 0000E  UNL     3 ROOT
   182 UNL   248 RESIDUE           4 0000G  UNL     6 ROOT
   183 UNL   250 RESIDUE           4 0000H  UNL     4 ROOT
   184 UNL   251 RESIDUE           4 0000J  UNL     3 ROOT
   185 UNL   252 RESIDUE           4 0000L  UNL     5 ROOT
   186 UNL   254 RESIDUE           4 0000M  UNL     4 ROOT
   187 UNL   255 RESIDUE           4 0000O  UNL     5 ROOT
   188 UNL   257 RESIDUE           4 0000Q  UNL     8 ROOT
   189 UNL   259 RESIDUE           4 0000R  UNL     4 ROOT
   190 UNL   260 RESIDUE           4 0000S  UNL     4 ROOT
   191 UNL   261 RESIDUE           4 0000T  UNL     6 ROOT
   192 UNL   262 RESIDUE           4 0000W  UNL     4 ROOT
   193 UNL   264 RESIDUE           4 0000X  UNL     3 ROOT
   194 UNL   265 RESIDUE           4 0000Y  UNL     3 ROOT
   195 UNL   266 RESIDUE           4 0000Z  UNL     6 ROOT
   196 UNL   267 RESIDUE           4 0000c  UNL     4 ROOT
   197 UNL   269 RESIDUE           4 0000d  UNL     3 ROOT
   198 UNL   270 RESIDUE           4 0000e  UNL     3 ROOT
   199 UNL   271 RESIDUE           4 0000f  UNL     6 ROOT
   200 UNL   272 RESIDUE           4 0000i  UNL     8 ROOT
   201 UNL   274 RESIDUE           4 0000j  UNL     4 ROOT
   202 UNL   275 RESIDUE           4 0000k  UNL     3 ROOT
   203 UNL   276 RESIDUE           4 0000l  UNL     5 ROOT
   204 UNL   277 RESIDUE           4 0000o  UNL     3 ROOT
   205 UNL   278 RESIDUE           4 0000q  UNL     4 ROOT
   206 UNL   280 RESIDUE           4 0000r  UNL     3 ROOT
   207 UNL   281 RESIDUE           4 0000t  UNL     2 ROOT
   208 UNL   282 RESIDUE           4 0000v  UNL     4 ROOT
   209 UNL   284 RESIDUE           4 0000w  UNL     4 ROOT
   210 UNL   285 RESIDUE           4 0000y  UNL     4 ROOT
   211 UNL   287 RESIDUE           4 00001  UNL     7 ROOT
   212 UNL   289 RESIDUE           4 00002  UNL     4 ROOT
   213 UNL   290 RESIDUE           4 00003  UNL     4 ROOT
   214 UNL   291 RESIDUE           4 00004  UNL     5 ROOT
   215 UNL   292 RESIDUE           4 00007  UNL     4 ROOT
   216 UNL   294 RESIDUE           4 00008  UNL     3 ROOT
   217 UNL   295 RESIDUE           4 00009  UNL     3 ROOT
   218 UNL   296 RESIDUE           4 00000  UNL     6 ROOT
   219 UNL   297 RESIDUE           4 00000C  UNL     4 ROOT
   220 UNL   299 RESIDUE           4 00000D  UNL     3 ROOT
   221 UNL   300 RESIDUE           4 00000E  UNL     3 ROOT
   222 UNL   301 RESIDUE           4 00000F  UNL     6 ROOT
   223 UNL   302 RESIDUE           4 00000I  UNL     8 ROOT
   224 UNL   304 RESIDUE           4 00000J  UNL     4 ROOT
   225 UNL   305 RESIDUE           4 00000K  UNL     3 ROOT
   226 UNL   306 RESIDUE           4 00000L  UNL     5 ROOT
