@<TRIPOS>MOLECULE
ferrihydrite6_crystal
856 1272 192 0 0
SMALL
NO_CHARGES


@<TRIPOS>ATOM
      1 Fe1        -1.4570    4.2630    5.8090 Fe        1 UNL    0.0000
      2 Fe2         0.0000    3.4230    3.0840 Fe        1 UNL    0.0000
      3 Fe3         0.0000    3.4230    8.7560 Fe        1 UNL    0.0000
      4 O1          0.0000    0.0000    0.4070 O.3       1 UNL    0.0000
      5 O2          0.0000    3.4230    6.9670 O         1 UNL    0.0000
      6 O3         -1.4550    4.2620    2.2510 O         1 UNL    0.0000
      7 O4          1.6840    2.4500    8.9400 O         1 UNL    0.0000
      8 H11        -0.0002   -0.6575   -0.2887 H         1 UNL    0.0000
      9 H12         0.4798   -0.3367    1.1637 H         1 UNL    0.0000
     10 Fe1         0.0006    1.7405    5.8090 Fe        2 UNL    0.0000
     11 O1          2.9640    5.1338    0.4070 O.3       2 UNL    0.0000
     12 O3          0.0005    1.7427    2.2510 O         2 UNL    0.0000
     13 O4          0.0002    5.3672    8.9400 O         2 UNL    0.0000
     14 H11         2.3947    5.4627   -0.2887 H         2 UNL    0.0000
     15 H12         3.3179    4.2812    0.1539 H         2 UNL    0.0000
     16 Fe1         1.4564    4.2641    5.8090 Fe        3 UNL    0.0000
     17 O1         -2.9640    5.1338    0.4070 O.3       3 UNL    0.0000
     18 O3          1.4545    4.2629    2.2510 O         3 UNL    0.0000
     19 O4         -1.6842    2.4504    8.9400 O         3 UNL    0.0000
     20 H11        -3.5333    5.4627   -0.2887 H         3 UNL    0.0000
     21 H12        -2.6101    4.2812    0.1539 H         3 UNL    0.0000
     22 Fe1         4.4210    0.8708    1.2460 Fe        4 UNL    0.0000
     23 Fe3         2.9640    1.7108    4.1930 Fe        4 UNL    0.0000
     24 O2          2.9640    1.7108    2.4040 O         4 UNL    0.0000
     25 O4          1.2800    2.6838    4.3770 O         4 UNL    0.0000
     26 Fe1         2.9634    3.3933    1.2460 Fe        5 UNL    0.0000
     27 O4          2.9638   -0.2334    4.3770 O         5 UNL    0.0000
     28 Fe1         1.5076    0.8697    1.2460 Fe        6 UNL    0.0000
     29 O4          4.6482    2.6834    4.3770 O         6 UNL    0.0000
     30 Fe1         4.4710    4.2630    5.8090 Fe        7 UNL    0.0000
     31 Fe2         5.9280    3.4230    3.0840 Fe        7 UNL    0.0000
     32 Fe3         5.9280    3.4230    8.7560 Fe        7 UNL    0.0000
     33 O1          5.9280    0.0000    0.4070 O.3       7 UNL    0.0000
     34 O2          5.9280    3.4230    6.9670 O         7 UNL    0.0000
     35 O3          4.4730    4.2620    2.2510 O         7 UNL    0.0000
     36 O4          7.6120    2.4500    8.9400 O         7 UNL    0.0000
     37 H11         5.9278   -0.6575   -0.2887 H         7 UNL    0.0000
     38 H12         6.4078   -0.3367    1.1637 H         7 UNL    0.0000
     39 Fe1         5.9286    1.7405    5.8090 Fe        8 UNL    0.0000
     40 O1          8.8920    5.1338    0.4070 O.3       8 UNL    0.0000
     41 O3          5.9285    1.7427    2.2510 O         8 UNL    0.0000
     42 O4          5.9282    5.3672    8.9400 O         8 UNL    0.0000
     43 H11         8.3227    5.4627   -0.2887 H         8 UNL    0.0000
     44 H12         9.2459    4.2812    0.1539 H         8 UNL    0.0000
     45 Fe1         7.3844    4.2641    5.8090 Fe        9 UNL    0.0000
     46 O3          7.3825    4.2629    2.2510 O         9 UNL    0.0000
     47 O4          4.2438    2.4504    8.9400 O         9 UNL    0.0000
     48 Fe1        10.3490    0.8708    1.2460 Fe       10 UNL    0.0000
     49 Fe3         8.8920    1.7108    4.1930 Fe       10 UNL    0.0000
     50 O2          8.8920    1.7108    2.4040 O        10 UNL    0.0000
     51 O4          7.2080    2.6838    4.3770 O        10 UNL    0.0000
     52 Fe1         8.8914    3.3933    1.2460 Fe       11 UNL    0.0000
     53 O4          8.8918   -0.2334    4.3770 O        11 UNL    0.0000
     54 Fe1         7.4356    0.8697    1.2460 Fe       12 UNL    0.0000
     55 O4         10.5762    2.6834    4.3770 O        12 UNL    0.0000
     56 Fe1        10.3990    4.2630    5.8090 Fe       13 UNL    0.0000
     57 Fe2        11.8560    3.4230    3.0840 Fe       13 UNL    0.0000
     58 Fe3        11.8560    3.4230    8.7560 Fe       13 UNL    0.0000
     59 O1         11.8560    0.0000    0.4070 O.3      13 UNL    0.0000
     60 O2         11.8560    3.4230    6.9670 O        13 UNL    0.0000
     61 O3         10.4010    4.2620    2.2510 O        13 UNL    0.0000
     62 O4         13.5400    2.4500    8.9400 O        13 UNL    0.0000
     63 H11        11.8558   -0.6575   -0.2887 H        13 UNL    0.0000
     64 H12        11.4346    0.7991    0.0906 H        13 UNL    0.0000
     65 Fe1        11.8566    1.7405    5.8090 Fe       14 UNL    0.0000
     66 O1         14.8200    5.1338    0.4070 O.3      14 UNL    0.0000
     67 O3         11.8565    1.7427    2.2510 O        14 UNL    0.0000
     68 O4         11.8562    5.3672    8.9400 O        14 UNL    0.0000
     69 H11        15.3895    5.4624   -0.2887 H        14 UNL    0.0000
     70 H12        14.4656    4.2814    0.1539 H        14 UNL    0.0000
     71 Fe1        13.3124    4.2641    5.8090 Fe       15 UNL    0.0000
     72 O3         13.3105    4.2629    2.2510 O        15 UNL    0.0000
     73 O4         10.1718    2.4504    8.9400 O        15 UNL    0.0000
     74 Fe1        16.2770    0.8708    1.2460 Fe       16 UNL    0.0000
     75 Fe3        14.8200    1.7108    4.1930 Fe       16 UNL    0.0000
     76 O2         14.8200    1.7108    2.4040 O        16 UNL    0.0000
     77 O4         13.1360    2.6838    4.3770 O        16 UNL    0.0000
     78 Fe1        14.8194    3.3933    1.2460 Fe       17 UNL    0.0000
     79 O4         14.8198   -0.2334    4.3770 O        17 UNL    0.0000
     80 Fe1        13.3636    0.8697    1.2460 Fe       18 UNL    0.0000
     81 O4         16.5042    2.6834    4.3770 O        18 UNL    0.0000
     82 Fe1        16.3270    4.2630    5.8090 Fe       19 UNL    0.0000
     83 Fe2        17.7840    3.4230    3.0840 Fe       19 UNL    0.0000
     84 Fe3        17.7840    3.4230    8.7560 Fe       19 UNL    0.0000
     85 O1         17.7840    0.0000    0.4070 O.3      19 UNL    0.0000
     86 O2         17.7840    3.4230    6.9670 O        19 UNL    0.0000
     87 O3         16.3290    4.2620    2.2510 O        19 UNL    0.0000
     88 O4         19.4680    2.4500    8.9400 O        19 UNL    0.0000
     89 H11        17.7838   -0.6575   -0.2887 H        19 UNL    0.0000
     90 H12        18.2638   -0.3367    1.1637 H        19 UNL    0.0000
     91 Fe1        17.7846    1.7405    5.8090 Fe       20 UNL    0.0000
     92 O1         20.7480    5.1338    0.4070 O.3      20 UNL    0.0000
     93 O3         17.7845    1.7427    2.2510 O        20 UNL    0.0000
     94 O4         17.7842    5.3672    8.9400 O        20 UNL    0.0000
     95 H11        21.3175    5.4624   -0.2887 H        20 UNL    0.0000
     96 H12        19.8452    5.0998    0.0907 H        20 UNL    0.0000
     97 Fe1        19.2404    4.2641    5.8090 Fe       21 UNL    0.0000
     98 O3         19.2385    4.2629    2.2510 O        21 UNL    0.0000
     99 O4         16.0998    2.4504    8.9400 O        21 UNL    0.0000
    100 Fe1        22.2050    0.8708    1.2460 Fe       22 UNL    0.0000
    101 Fe3        20.7480    1.7108    4.1930 Fe       22 UNL    0.0000
    102 O2         20.7480    1.7108    2.4040 O        22 UNL    0.0000
    103 O4         19.0640    2.6838    4.3770 O        22 UNL    0.0000
    104 Fe1        20.7474    3.3933    1.2460 Fe       23 UNL    0.0000
    105 O4         20.7478   -0.2334    4.3770 O        23 UNL    0.0000
    106 Fe1        19.2916    0.8697    1.2460 Fe       24 UNL    0.0000
    107 O4         22.4322    2.6834    4.3770 O        24 UNL    0.0000
    108 Fe1        -4.4210    9.3968    5.8090 Fe       25 UNL    0.0000
    109 Fe2        -2.9640    8.5568    3.0840 Fe       25 UNL    0.0000
    110 Fe3        -2.9640    8.5568    8.7560 Fe       25 UNL    0.0000
    111 O2         -2.9640    8.5568    6.9670 O        25 UNL    0.0000
    112 O3         -4.4190    9.3958    2.2510 O        25 UNL    0.0000
    113 O4         -1.2800    7.5838    8.9400 O        25 UNL    0.0000
    114 Fe1        -2.9634    6.8743    5.8090 Fe       26 UNL    0.0000
    115 O1          0.0000   10.2676    0.4070 O.3      26 UNL    0.0000
    116 O3         -2.9635    6.8765    2.2510 O        26 UNL    0.0000
    117 O4         -2.9638   10.5010    8.9400 O        26 UNL    0.0000
    118 H11        -0.0002    9.6101   -0.2887 H        26 UNL    0.0000
    119 H12        -0.5610   11.0007    0.1539 H        26 UNL    0.0000
    120 Fe1        -1.5076    9.3979    5.8090 Fe       27 UNL    0.0000
    121 O1         -5.9280   10.2676    0.4070 O.3      27 UNL    0.0000
    122 O3         -1.5095    9.3967    2.2510 O        27 UNL    0.0000
    123 O4         -4.6482    7.5842    8.9400 O        27 UNL    0.0000
    124 H11        -5.9282    9.6101   -0.2887 H        27 UNL    0.0000
    125 H12        -6.4890   11.0007    0.1539 H        27 UNL    0.0000
    126 Fe1         1.4570    6.0046    1.2460 Fe       28 UNL    0.0000
    127 Fe3         0.0000    6.8446    4.1930 Fe       28 UNL    0.0000
    128 O2          0.0000    6.8446    2.4040 O        28 UNL    0.0000
    129 O4         -1.6840    7.8176    4.3770 O        28 UNL    0.0000
    130 Fe1        -0.0006    8.5271    1.2460 Fe       29 UNL    0.0000
    131 O4         -0.0002    4.9004    4.3770 O        29 UNL    0.0000
    132 Fe1        -1.4564    6.0035    1.2460 Fe       30 UNL    0.0000
    133 O4          1.6842    7.8172    4.3770 O        30 UNL    0.0000
    134 Fe1         1.5070    9.3968    5.8090 Fe       31 UNL    0.0000
    135 Fe2         2.9640    8.5568    3.0840 Fe       31 UNL    0.0000
    136 Fe3         2.9640    8.5568    8.7560 Fe       31 UNL    0.0000
    137 O2          2.9640    8.5568    6.9670 O        31 UNL    0.0000
    138 O3          1.5090    9.3958    2.2510 O        31 UNL    0.0000
    139 O4          4.6480    7.5838    8.9400 O        31 UNL    0.0000
    140 Fe1         2.9646    6.8743    5.8090 Fe       32 UNL    0.0000
    141 O1          5.9280   10.2676    0.4070 O.3      32 UNL    0.0000
    142 O3          2.9645    6.8765    2.2510 O        32 UNL    0.0000
    143 O4          2.9642   10.5010    8.9400 O        32 UNL    0.0000
    144 H11         5.9278    9.6101   -0.2887 H        32 UNL    0.0000
    145 H12         5.3670   11.0007    0.1539 H        32 UNL    0.0000
    146 Fe1         4.4204    9.3979    5.8090 Fe       33 UNL    0.0000
    147 O3          4.4185    9.3967    2.2510 O        33 UNL    0.0000
    148 O4          1.2798    7.5842    8.9400 O        33 UNL    0.0000
    149 Fe1         7.3850    6.0046    1.2460 Fe       34 UNL    0.0000
    150 Fe3         5.9280    6.8446    4.1930 Fe       34 UNL    0.0000
    151 O2          5.9280    6.8446    2.4040 O        34 UNL    0.0000
    152 O4          4.2440    7.8176    4.3770 O        34 UNL    0.0000
    153 Fe1         5.9274    8.5271    1.2460 Fe       35 UNL    0.0000
    154 O4          5.9278    4.9004    4.3770 O        35 UNL    0.0000
    155 Fe1         4.4716    6.0035    1.2460 Fe       36 UNL    0.0000
    156 O4          7.6122    7.8172    4.3770 O        36 UNL    0.0000
    157 Fe1         7.4350    9.3968    5.8090 Fe       37 UNL    0.0000
    158 Fe2         8.8920    8.5568    3.0840 Fe       37 UNL    0.0000
    159 Fe3         8.8920    8.5568    8.7560 Fe       37 UNL    0.0000
    160 O2          8.8920    8.5568    6.9670 O        37 UNL    0.0000
    161 O3          7.4370    9.3958    2.2510 O        37 UNL    0.0000
    162 O4         10.5760    7.5838    8.9400 O        37 UNL    0.0000
    163 Fe1         8.8926    6.8743    5.8090 Fe       38 UNL    0.0000
    164 O1         11.8560   10.2676    0.4070 O.3      38 UNL    0.0000
    165 O3          8.8925    6.8765    2.2510 O        38 UNL    0.0000
    166 O4          8.8922   10.5010    8.9400 O        38 UNL    0.0000
    167 H11        11.2867   10.5965   -0.2887 H        38 UNL    0.0000
    168 H12        12.2099    9.4150    0.1539 H        38 UNL    0.0000
    169 Fe1        10.3484    9.3979    5.8090 Fe       39 UNL    0.0000
    170 O3         10.3465    9.3967    2.2510 O        39 UNL    0.0000
    171 O4          7.2078    7.5842    8.9400 O        39 UNL    0.0000
    172 Fe1        13.3130    6.0046    1.2460 Fe       40 UNL    0.0000
    173 Fe3        11.8560    6.8446    4.1930 Fe       40 UNL    0.0000
    174 O2         11.8560    6.8446    2.4040 O        40 UNL    0.0000
    175 O4         10.1720    7.8176    4.3770 O        40 UNL    0.0000
    176 Fe1        11.8554    8.5271    1.2460 Fe       41 UNL    0.0000
    177 O4         11.8558    4.9004    4.3770 O        41 UNL    0.0000
    178 Fe1        10.3996    6.0035    1.2460 Fe       42 UNL    0.0000
    179 O4         13.5402    7.8172    4.3770 O        42 UNL    0.0000
    180 Fe1        13.3630    9.3968    5.8090 Fe       43 UNL    0.0000
    181 Fe2        14.8200    8.5568    3.0840 Fe       43 UNL    0.0000
    182 Fe3        14.8200    8.5568    8.7560 Fe       43 UNL    0.0000
    183 O2         14.8200    8.5568    6.9670 O        43 UNL    0.0000
    184 O3         13.3650    9.3958    2.2510 O        43 UNL    0.0000
    185 O4         16.5040    7.5838    8.9400 O        43 UNL    0.0000
    186 Fe1        14.8206    6.8743    5.8090 Fe       44 UNL    0.0000
    187 O1         17.7840   10.2676    0.4070 O.3      44 UNL    0.0000
    188 O3         14.8205    6.8765    2.2510 O        44 UNL    0.0000
    189 O4         14.8202   10.5010    8.9400 O        44 UNL    0.0000
    190 H11        18.3535   10.5962   -0.2887 H        44 UNL    0.0000
    191 H12        18.3153   10.0200    1.1637 H        44 UNL    0.0000
    192 Fe1        16.2764    9.3979    5.8090 Fe       45 UNL    0.0000
    193 O3         16.2745    9.3967    2.2510 O        45 UNL    0.0000
    194 O4         13.1358    7.5842    8.9400 O        45 UNL    0.0000
    195 Fe1        19.2410    6.0046    1.2460 Fe       46 UNL    0.0000
    196 Fe3        17.7840    6.8446    4.1930 Fe       46 UNL    0.0000
    197 O2         17.7840    6.8446    2.4040 O        46 UNL    0.0000
    198 O4         16.1000    7.8176    4.3770 O        46 UNL    0.0000
    199 Fe1        17.7834    8.5271    1.2460 Fe       47 UNL    0.0000
    200 O4         17.7838    4.9004    4.3770 O        47 UNL    0.0000
    201 Fe1        16.3276    6.0035    1.2460 Fe       48 UNL    0.0000
    202 O4         19.4682    7.8172    4.3770 O        48 UNL    0.0000
    203 Fe1        -7.3850   14.5306    5.8090 Fe       49 UNL    0.0000
    204 Fe2        -5.9280   13.6906    3.0840 Fe       49 UNL    0.0000
    205 Fe3        -5.9280   13.6906    8.7560 Fe       49 UNL    0.0000
    206 O2         -5.9280   13.6906    6.9670 O        49 UNL    0.0000
    207 O3         -7.3830   14.5296    2.2510 O        49 UNL    0.0000
    208 O4         -4.2440   12.7176    8.9400 O        49 UNL    0.0000
    209 Fe1        -5.9274   12.0081    5.8090 Fe       50 UNL    0.0000
    210 O1         -2.9640   15.4014    0.4070 O.3      50 UNL    0.0000
    211 O3         -5.9275   12.0103    2.2510 O        50 UNL    0.0000
    212 O4         -5.9278   15.6348    8.9400 O        50 UNL    0.0000
    213 H11        -3.5333   15.7303   -0.2887 H        50 UNL    0.0000
    214 H12        -2.0486   15.5207    0.1539 H        50 UNL    0.0000
    215 Fe1        -4.4716   14.5317    5.8090 Fe       51 UNL    0.0000
    216 O1         -8.8920   15.4014    0.4070 O.3      51 UNL    0.0000
    217 O3         -4.4735   14.5305    2.2510 O        51 UNL    0.0000
    218 O4         -7.6122   12.7180    8.9400 O        51 UNL    0.0000
    219 H11        -9.4613   15.7303   -0.2887 H        51 UNL    0.0000
    220 H12        -8.5381   14.5488    0.1539 H        51 UNL    0.0000
    221 Fe1        -1.5070   11.1384    1.2460 Fe       52 UNL    0.0000
    222 Fe3        -2.9640   11.9784    4.1930 Fe       52 UNL    0.0000
    223 O2         -2.9640   11.9784    2.4040 O        52 UNL    0.0000
    224 O4         -4.6480   12.9514    4.3770 O        52 UNL    0.0000
    225 Fe1        -2.9646   13.6609    1.2460 Fe       53 UNL    0.0000
    226 O4         -2.9642   10.0342    4.3770 O        53 UNL    0.0000
    227 Fe1        -4.4204   11.1373    1.2460 Fe       54 UNL    0.0000
    228 O4         -1.2798   12.9510    4.3770 O        54 UNL    0.0000
    229 Fe1        -1.4570   14.5306    5.8090 Fe       55 UNL    0.0000
    230 Fe2         0.0000   13.6906    3.0840 Fe       55 UNL    0.0000
    231 Fe3         0.0000   13.6906    8.7560 Fe       55 UNL    0.0000
    232 O2          0.0000   13.6906    6.9670 O        55 UNL    0.0000
    233 O3         -1.4550   14.5296    2.2510 O        55 UNL    0.0000
    234 O4          1.6840   12.7176    8.9400 O        55 UNL    0.0000
    235 Fe1         0.0006   12.0081    5.8090 Fe       56 UNL    0.0000
    236 O1          2.9640   15.4014    0.4070 O.3      56 UNL    0.0000
    237 O3          0.0005   12.0103    2.2510 O        56 UNL    0.0000
    238 O4          0.0002   15.6348    8.9400 O        56 UNL    0.0000
    239 H11         2.3947   15.7303   -0.2887 H        56 UNL    0.0000
    240 H12         3.8794   15.5207    0.1539 H        56 UNL    0.0000
    241 Fe1         1.4564   14.5317    5.8090 Fe       57 UNL    0.0000
    242 O3          1.4545   14.5305    2.2510 O        57 UNL    0.0000
    243 O4         -1.6842   12.7180    8.9400 O        57 UNL    0.0000
    244 Fe1         4.4210   11.1384    1.2460 Fe       58 UNL    0.0000
    245 Fe3         2.9640   11.9784    4.1930 Fe       58 UNL    0.0000
    246 O2          2.9640   11.9784    2.4040 O        58 UNL    0.0000
    247 O4          1.2800   12.9514    4.3770 O        58 UNL    0.0000
    248 Fe1         2.9634   13.6609    1.2460 Fe       59 UNL    0.0000
    249 O4          2.9638   10.0342    4.3770 O        59 UNL    0.0000
    250 Fe1         1.5076   11.1373    1.2460 Fe       60 UNL    0.0000
    251 O4          4.6482   12.9510    4.3770 O        60 UNL    0.0000
    252 Fe1         4.4710   14.5306    5.8090 Fe       61 UNL    0.0000
    253 Fe2         5.9280   13.6906    3.0840 Fe       61 UNL    0.0000
    254 Fe3         5.9280   13.6906    8.7560 Fe       61 UNL    0.0000
    255 O2          5.9280   13.6906    6.9670 O        61 UNL    0.0000
    256 O3          4.4730   14.5296    2.2510 O        61 UNL    0.0000
    257 O4          7.6120   12.7176    8.9400 O        61 UNL    0.0000
    258 Fe1         5.9286   12.0081    5.8090 Fe       62 UNL    0.0000
    259 O1          8.8920   15.4014    0.4070 O.3      62 UNL    0.0000
    260 O3          5.9285   12.0103    2.2510 O        62 UNL    0.0000
    261 O4          5.9282   15.6348    8.9400 O        62 UNL    0.0000
    262 H11         8.3227   15.7303   -0.2887 H        62 UNL    0.0000
    263 H12         9.8074   15.5207    0.1539 H        62 UNL    0.0000
    264 Fe1         7.3844   14.5317    5.8090 Fe       63 UNL    0.0000
    265 O3          7.3825   14.5305    2.2510 O        63 UNL    0.0000
    266 O4          4.2438   12.7180    8.9400 O        63 UNL    0.0000
    267 Fe1        10.3490   11.1384    1.2460 Fe       64 UNL    0.0000
    268 Fe3         8.8920   11.9784    4.1930 Fe       64 UNL    0.0000
    269 O2          8.8920   11.9784    2.4040 O        64 UNL    0.0000
    270 O4          7.2080   12.9514    4.3770 O        64 UNL    0.0000
    271 Fe1         8.8914   13.6609    1.2460 Fe       65 UNL    0.0000
    272 O4          8.8918   10.0342    4.3770 O        65 UNL    0.0000
    273 Fe1         7.4356   11.1373    1.2460 Fe       66 UNL    0.0000
    274 O4         10.5762   12.9510    4.3770 O        66 UNL    0.0000
    275 Fe1        10.3990   14.5306    5.8090 Fe       67 UNL    0.0000
    276 Fe2        11.8560   13.6906    3.0840 Fe       67 UNL    0.0000
    277 Fe3        11.8560   13.6906    8.7560 Fe       67 UNL    0.0000
    278 O2         11.8560   13.6906    6.9670 O        67 UNL    0.0000
    279 O3         10.4010   14.5296    2.2510 O        67 UNL    0.0000
    280 O4         13.5400   12.7176    8.9400 O        67 UNL    0.0000
    281 Fe1        11.8566   12.0081    5.8090 Fe       68 UNL    0.0000
    282 O1         14.8200   15.4014    0.4070 O.3      68 UNL    0.0000
    283 O3         11.8565   12.0103    2.2510 O        68 UNL    0.0000
    284 O4         11.8562   15.6348    8.9400 O        68 UNL    0.0000
    285 H11        15.3895   15.7300   -0.2887 H        68 UNL    0.0000
    286 H12        15.3513   15.1538    1.1637 H        68 UNL    0.0000
    287 Fe1        13.3124   14.5317    5.8090 Fe       69 UNL    0.0000
    288 O3         13.3105   14.5305    2.2510 O        69 UNL    0.0000
    289 O4         10.1718   12.7180    8.9400 O        69 UNL    0.0000
    290 Fe1        16.2770   11.1384    1.2460 Fe       70 UNL    0.0000
    291 Fe3        14.8200   11.9784    4.1930 Fe       70 UNL    0.0000
    292 O2         14.8200   11.9784    2.4040 O        70 UNL    0.0000
    293 O4         13.1360   12.9514    4.3770 O        70 UNL    0.0000
    294 Fe1        14.8194   13.6609    1.2460 Fe       71 UNL    0.0000
    295 O4         14.8198   10.0342    4.3770 O        71 UNL    0.0000
    296 Fe1        13.3636   11.1373    1.2460 Fe       72 UNL    0.0000
    297 O4         16.5042   12.9510    4.3770 O        72 UNL    0.0000
    298 Fe1       -10.3490   19.6644    5.8090 Fe       73 UNL    0.0000
    299 Fe2        -8.8920   18.8244    3.0840 Fe       73 UNL    0.0000
    300 Fe3        -8.8920   18.8244    8.7560 Fe       73 UNL    0.0000
    301 O2         -8.8920   18.8244    6.9670 O        73 UNL    0.0000
    302 O3        -10.3470   19.6634    2.2510 O        73 UNL    0.0000
    303 O4         -7.2080   17.8514    8.9400 O        73 UNL    0.0000
    304 Fe1        -8.8914   17.1419    5.8090 Fe       74 UNL    0.0000
    305 O1         -5.9280   20.5352    0.4070 O.3      74 UNL    0.0000
    306 O3         -8.8915   17.1441    2.2510 O        74 UNL    0.0000
    307 O4         -8.8918   20.7686    8.9400 O        74 UNL    0.0000
    308 H11        -5.3585   20.8638   -0.2887 H        74 UNL    0.0000
    309 H12        -6.8433   20.6550    0.1539 H        74 UNL    0.0000
    310 Fe1        -7.4356   19.6655    5.8090 Fe       75 UNL    0.0000
    311 O1        -11.8560   20.5352    0.4070 O.3      75 UNL    0.0000
    312 O3         -7.4375   19.6643    2.2510 O        75 UNL    0.0000
    313 O4        -10.5762   17.8518    8.9400 O        75 UNL    0.0000
    314 H11       -12.4253   20.8641   -0.2887 H        75 UNL    0.0000
    315 H12       -11.3039   21.2471    0.7305 H        75 UNL    0.0000
    316 Fe1        -4.4710   16.2722    1.2460 Fe       76 UNL    0.0000
    317 Fe3        -5.9280   17.1122    4.1930 Fe       76 UNL    0.0000
    318 O2         -5.9280   17.1122    2.4040 O        76 UNL    0.0000
    319 O4         -7.6120   18.0852    4.3770 O        76 UNL    0.0000
    320 Fe1        -5.9286   18.7947    1.2460 Fe       77 UNL    0.0000
    321 O4         -5.9282   15.1680    4.3770 O        77 UNL    0.0000
    322 Fe1        -7.3844   16.2711    1.2460 Fe       78 UNL    0.0000
    323 O4         -4.2438   18.0848    4.3770 O        78 UNL    0.0000
    324 Fe1        -4.4210   19.6644    5.8090 Fe       79 UNL    0.0000
    325 Fe2        -2.9640   18.8244    3.0840 Fe       79 UNL    0.0000
    326 Fe3        -2.9640   18.8244    8.7560 Fe       79 UNL    0.0000
    327 O2         -2.9640   18.8244    6.9670 O        79 UNL    0.0000
    328 O3         -4.4190   19.6634    2.2510 O        79 UNL    0.0000
    329 O4         -1.2800   17.8514    8.9400 O        79 UNL    0.0000
    330 Fe1        -2.9634   17.1419    5.8090 Fe       80 UNL    0.0000
    331 O1          0.0000   20.5352    0.4070 O.3      80 UNL    0.0000
    332 O3         -2.9635   17.1441    2.2510 O        80 UNL    0.0000
    333 O4         -2.9638   20.7686    8.9400 O        80 UNL    0.0000
    334 H11        -0.5693   20.8641   -0.2887 H        80 UNL    0.0000
    335 H12         0.9154   20.6545    0.1539 H        80 UNL    0.0000
    336 Fe1        -1.5076   19.6655    5.8090 Fe       81 UNL    0.0000
    337 O3         -1.5095   19.6643    2.2510 O        81 UNL    0.0000
    338 O4         -4.6482   17.8518    8.9400 O        81 UNL    0.0000
    339 Fe1         1.4570   16.2722    1.2460 Fe       82 UNL    0.0000
    340 Fe3         0.0000   17.1122    4.1930 Fe       82 UNL    0.0000
    341 O2          0.0000   17.1122    2.4040 O        82 UNL    0.0000
    342 O4         -1.6840   18.0852    4.3770 O        82 UNL    0.0000
    343 Fe1        -0.0006   18.7947    1.2460 Fe       83 UNL    0.0000
    344 O4         -0.0002   15.1680    4.3770 O        83 UNL    0.0000
    345 Fe1        -1.4564   16.2711    1.2460 Fe       84 UNL    0.0000
    346 O4          1.6842   18.0848    4.3770 O        84 UNL    0.0000
    347 Fe1         1.5070   19.6644    5.8090 Fe       85 UNL    0.0000
    348 Fe2         2.9640   18.8244    3.0840 Fe       85 UNL    0.0000
    349 Fe3         2.9640   18.8244    8.7560 Fe       85 UNL    0.0000
    350 O2          2.9640   18.8244    6.9670 O        85 UNL    0.0000
    351 O3          1.5090   19.6634    2.2510 O        85 UNL    0.0000
    352 O4          4.6480   17.8514    8.9400 O        85 UNL    0.0000
    353 Fe1         2.9646   17.1419    5.8090 Fe       86 UNL    0.0000
    354 O1          5.9280   20.5352    0.4070 O.3      86 UNL    0.0000
    355 O3          2.9645   17.1441    2.2510 O        86 UNL    0.0000
    356 O4          2.9642   20.7686    8.9400 O        86 UNL    0.0000
    357 H11         6.4975   20.8638   -0.2887 H        86 UNL    0.0000
    358 H12         5.0127   20.6550    0.1539 H        86 UNL    0.0000
    359 Fe1         4.4204   19.6655    5.8090 Fe       87 UNL    0.0000
    360 O3          4.4185   19.6643    2.2510 O        87 UNL    0.0000
    361 O4          1.2798   17.8518    8.9400 O        87 UNL    0.0000
    362 Fe1         7.3850   16.2722    1.2460 Fe       88 UNL    0.0000
    363 Fe3         5.9280   17.1122    4.1930 Fe       88 UNL    0.0000
    364 O2          5.9280   17.1122    2.4040 O        88 UNL    0.0000
    365 O4          4.2440   18.0852    4.3770 O        88 UNL    0.0000
    366 Fe1         5.9274   18.7947    1.2460 Fe       89 UNL    0.0000
    367 O4          5.9278   15.1680    4.3770 O        89 UNL    0.0000
    368 Fe1         4.4716   16.2711    1.2460 Fe       90 UNL    0.0000
    369 O4          7.6122   18.0848    4.3770 O        90 UNL    0.0000
    370 Fe1         7.4350   19.6644    5.8090 Fe       91 UNL    0.0000
    371 Fe2         8.8920   18.8244    3.0840 Fe       91 UNL    0.0000
    372 Fe3         8.8920   18.8244    8.7560 Fe       91 UNL    0.0000
    373 O2          8.8920   18.8244    6.9670 O        91 UNL    0.0000
    374 O3          7.4370   19.6634    2.2510 O        91 UNL    0.0000
    375 O4         10.5760   17.8514    8.9400 O        91 UNL    0.0000
    376 Fe1         8.8926   17.1419    5.8090 Fe       92 UNL    0.0000
    377 O1         11.8560   20.5352    0.4070 O.3      92 UNL    0.0000
    378 O3          8.8925   17.1441    2.2510 O        92 UNL    0.0000
    379 O4          8.8922   20.7686    8.9400 O        92 UNL    0.0000
    380 H11        12.4255   20.8638   -0.2887 H        92 UNL    0.0000
    381 H12        12.3873   20.2876    1.1637 H        92 UNL    0.0000
    382 Fe1        10.3484   19.6655    5.8090 Fe       93 UNL    0.0000
    383 O3         10.3465   19.6643    2.2510 O        93 UNL    0.0000
    384 O4          7.2078   17.8518    8.9400 O        93 UNL    0.0000
    385 Fe1        13.3130   16.2722    1.2460 Fe       94 UNL    0.0000
    386 Fe3        11.8560   17.1122    4.1930 Fe       94 UNL    0.0000
    387 O2         11.8560   17.1122    2.4040 O        94 UNL    0.0000
    388 O4         10.1720   18.0852    4.3770 O        94 UNL    0.0000
    389 Fe1        11.8554   18.7947    1.2460 Fe       95 UNL    0.0000
    390 O4         11.8558   15.1680    4.3770 O        95 UNL    0.0000
    391 Fe1        10.3996   16.2711    1.2460 Fe       96 UNL    0.0000
    392 O4         13.5402   18.0848    4.3770 O        96 UNL    0.0000
    393 Fe1        -1.4570    4.2630   14.9350 Fe       97 UNL    0.0000
    394 Fe2         0.0000    3.4230   12.2100 Fe       97 UNL    0.0000
    395 O1          0.0000    0.0000    9.5330 O.3      97 UNL    0.0000
    396 O2          0.0000    3.4230   16.0930 O        97 UNL    0.0000
    397 O3         -1.4550    4.2620   11.3770 O        97 UNL    0.0000
    398 H11        -0.0002   -0.6575    8.8373 H        97 UNL    0.0000
    399 H12         0.4798   -0.3367   10.2897 H        97 UNL    0.0000
    400 Fe1         0.0006    1.7405   14.9350 Fe       98 UNL    0.0000
    401 O1          2.9640    5.1338    9.5330 O.3      98 UNL    0.0000
    402 O3          0.0005    1.7427   11.3770 O        98 UNL    0.0000
    403 H11         2.3947    5.4627    8.8373 H        98 UNL    0.0000
    404 H12         3.8794    5.2531    9.2799 H        98 UNL    0.0000
    405 Fe1         1.4564    4.2641   14.9350 Fe       99 UNL    0.0000
    406 O1         -2.9640    5.1338    9.5330 O.3      99 UNL    0.0000
    407 O3          1.4545    4.2629   11.3770 O        99 UNL    0.0000
    408 H11        -3.5333    5.4627    8.8373 H        99 UNL    0.0000
    409 H12        -3.4685    5.0425   10.3413 H        99 UNL    0.0000
    410 Fe1         4.4210    0.8708   10.3720 Fe      100 UNL    0.0000
    411 Fe2         2.9640    1.7108    7.6470 Fe      100 UNL    0.0000
    412 Fe3         2.9640    1.7108   13.3190 Fe      100 UNL    0.0000
    413 O1          2.9640    5.1338    4.9700 O.3     100 UNL    0.0000
    414 O2          2.9640    1.7108   11.5300 O       100 UNL    0.0000
    415 O3          4.4190    0.8718    6.8140 O       100 UNL    0.0000
    416 O4          1.2800    2.6838   13.5030 O       100 UNL    0.0000
    417 H11         2.3945    4.8052    4.2743 H       100 UNL    0.0000
    418 H12         3.3184    5.9862    4.7169 H       100 UNL    0.0000
    419 Fe1         2.9634    3.3933   10.3720 Fe      101 UNL    0.0000
    420 O1          0.0000    0.0000    4.9700 O.3     101 UNL    0.0000
    421 O3          2.9635    3.3911    6.8140 O       101 UNL    0.0000
    422 O4          2.9638   -0.2334   13.5030 O       101 UNL    0.0000
    423 H11        -0.5695   -0.3286    4.2743 H       101 UNL    0.0000
    424 H12        -0.5313    0.2476    5.7267 H       101 UNL    0.0000
    425 Fe1         1.5076    0.8697   10.3720 Fe      102 UNL    0.0000
    426 O1          5.9280    0.0000    4.9700 O.3     102 UNL    0.0000
    427 O3          1.5095    0.8709    6.8140 O       102 UNL    0.0000
    428 O4          4.6482    2.6834   13.5030 O       102 UNL    0.0000
    429 H11         6.4973   -0.3289    4.2743 H       102 UNL    0.0000
    430 H12         6.1009   -0.4826    5.7783 H       102 UNL    0.0000
    431 Fe1         4.4710    4.2630   14.9350 Fe      103 UNL    0.0000
    432 Fe2         5.9280    3.4230   12.2100 Fe      103 UNL    0.0000
    433 O1          5.9280    0.0000    9.5330 O.3     103 UNL    0.0000
    434 O2          5.9280    3.4230   16.0930 O       103 UNL    0.0000
    435 O3          4.4730    4.2620   11.3770 O       103 UNL    0.0000
    436 H11         5.9278   -0.6575    8.8373 H       103 UNL    0.0000
    437 H12         5.4476   -0.3360   10.2897 H       103 UNL    0.0000
    438 Fe1         5.9286    1.7405   14.9350 Fe      104 UNL    0.0000
    439 O1          8.8920    5.1338    9.5330 O.3     104 UNL    0.0000
    440 O3          5.9285    1.7427   11.3770 O       104 UNL    0.0000
    441 H11         8.3227    5.4627    8.8373 H       104 UNL    0.0000
    442 H12         9.8074    5.2531    9.2799 H       104 UNL    0.0000
    443 Fe1         7.3844    4.2641   14.9350 Fe      105 UNL    0.0000
    444 O3          7.3825    4.2629   11.3770 O       105 UNL    0.0000
    445 Fe1        10.3490    0.8708   10.3720 Fe      106 UNL    0.0000
    446 Fe2         8.8920    1.7108    7.6470 Fe      106 UNL    0.0000
    447 Fe3         8.8920    1.7108   13.3190 Fe      106 UNL    0.0000
    448 O1          8.8920    5.1338    4.9700 O.3     106 UNL    0.0000
    449 O2          8.8920    1.7108   11.5300 O       106 UNL    0.0000
    450 O3         10.3470    0.8718    6.8140 O       106 UNL    0.0000
    451 O4          7.2080    2.6838   13.5030 O       106 UNL    0.0000
    452 H11         8.3225    4.8052    4.2743 H       106 UNL    0.0000
    453 H12         9.8073    5.0140    4.7169 H       106 UNL    0.0000
    454 Fe1         8.8914    3.3933   10.3720 Fe      107 UNL    0.0000
    455 O3          8.8915    3.3911    6.8140 O       107 UNL    0.0000
    456 O4          8.8918   -0.2334   13.5030 O       107 UNL    0.0000
    457 Fe1         7.4356    0.8697   10.3720 Fe      108 UNL    0.0000
    458 O1         11.8560    0.0000    4.9700 O.3     108 UNL    0.0000
    459 O3          7.4375    0.8709    6.8140 O       108 UNL    0.0000
    460 O4         10.5762    2.6834   13.5030 O       108 UNL    0.0000
    461 H11        11.2865   -0.3286    4.2743 H       108 UNL    0.0000
    462 H12        11.6827   -0.4821    5.7786 H       108 UNL    0.0000
    463 Fe1        10.3990    4.2630   14.9350 Fe      109 UNL    0.0000
    464 Fe2        11.8560    3.4230   12.2100 Fe      109 UNL    0.0000
    465 O1         11.8560    0.0000    9.5330 O.3     109 UNL    0.0000
    466 O2         11.8560    3.4230   16.0930 O       109 UNL    0.0000
    467 O3         10.4010    4.2620   11.3770 O       109 UNL    0.0000
    468 H11        11.8558   -0.6575    8.8373 H       109 UNL    0.0000
    469 H12        11.3756   -0.3360   10.2897 H       109 UNL    0.0000
    470 Fe1        11.8566    1.7405   14.9350 Fe      110 UNL    0.0000
    471 O1         14.8200    5.1338    9.5330 O.3     110 UNL    0.0000
    472 O3         11.8565    1.7427   11.3770 O       110 UNL    0.0000
    473 H11        15.3895    5.4624    8.8373 H       110 UNL    0.0000
    474 H12        14.4656    4.2814    9.2799 H       110 UNL    0.0000
    475 Fe1        13.3124    4.2641   14.9350 Fe      111 UNL    0.0000
    476 O3         13.3105    4.2629   11.3770 O       111 UNL    0.0000
    477 Fe1        16.2770    0.8708   10.3720 Fe      112 UNL    0.0000
    478 Fe2        14.8200    1.7108    7.6470 Fe      112 UNL    0.0000
    479 Fe3        14.8200    1.7108   13.3190 Fe      112 UNL    0.0000
    480 O1         14.8200    5.1338    4.9700 O.3     112 UNL    0.0000
    481 O2         14.8200    1.7108   11.5300 O       112 UNL    0.0000
    482 O3         16.2750    0.8718    6.8140 O       112 UNL    0.0000
    483 O4         13.1360    2.6838   13.5030 O       112 UNL    0.0000
    484 H11        14.2505    4.8052    4.2743 H       112 UNL    0.0000
    485 H12        15.1744    5.9862    4.7169 H       112 UNL    0.0000
    486 Fe1        14.8194    3.3933   10.3720 Fe      113 UNL    0.0000
    487 O3         14.8195    3.3911    6.8140 O       113 UNL    0.0000
    488 O4         14.8198   -0.2334   13.5030 O       113 UNL    0.0000
    489 Fe1        13.3636    0.8697   10.3720 Fe      114 UNL    0.0000
    490 O1         17.7840    0.0000    4.9700 O.3     114 UNL    0.0000
    491 O3         13.3655    0.8709    6.8140 O       114 UNL    0.0000
    492 O4         16.5042    2.6834   13.5030 O       114 UNL    0.0000
    493 H11        17.2145   -0.3286    4.2743 H       114 UNL    0.0000
    494 H12        17.6107   -0.4821    5.7786 H       114 UNL    0.0000
    495 Fe1        16.3270    4.2630   14.9350 Fe      115 UNL    0.0000
    496 Fe2        17.7840    3.4230   12.2100 Fe      115 UNL    0.0000
    497 O1         17.7840    0.0000    9.5330 O.3     115 UNL    0.0000
    498 O2         17.7840    3.4230   16.0930 O       115 UNL    0.0000
    499 O3         16.3290    4.2620   11.3770 O       115 UNL    0.0000
    500 H11        17.7838   -0.6575    8.8373 H       115 UNL    0.0000
    501 H12        18.2638   -0.3367   10.2897 H       115 UNL    0.0000
    502 Fe1        17.7846    1.7405   14.9350 Fe      116 UNL    0.0000
    503 O1         20.7480    5.1338    9.5330 O.3     116 UNL    0.0000
    504 O3         17.7845    1.7427   11.3770 O       116 UNL    0.0000
    505 H11        21.3175    5.4624    8.8373 H       116 UNL    0.0000
    506 H12        20.7992    5.7178   10.2897 H       116 UNL    0.0000
    507 Fe1        19.2404    4.2641   14.9350 Fe      117 UNL    0.0000
    508 O3         19.2385    4.2629   11.3770 O       117 UNL    0.0000
    509 Fe1        22.2050    0.8708   10.3720 Fe      118 UNL    0.0000
    510 Fe2        20.7480    1.7108    7.6470 Fe      118 UNL    0.0000
    511 Fe3        20.7480    1.7108   13.3190 Fe      118 UNL    0.0000
    512 O1         20.7480    5.1338    4.9700 O.3     118 UNL    0.0000
    513 O2         20.7480    1.7108   11.5300 O       118 UNL    0.0000
    514 O3         22.2030    0.8718    6.8140 O       118 UNL    0.0000
    515 O4         19.0640    2.6838   13.5030 O       118 UNL    0.0000
    516 H11        21.3173    4.8049    4.2743 H       118 UNL    0.0000
    517 H12        21.2525    5.2251    5.7783 H       118 UNL    0.0000
    518 Fe1        20.7474    3.3933   10.3720 Fe      119 UNL    0.0000
    519 O3         20.7475    3.3911    6.8140 O       119 UNL    0.0000
    520 O4         20.7478   -0.2334   13.5030 O       119 UNL    0.0000
    521 Fe1        19.2916    0.8697   10.3720 Fe      120 UNL    0.0000
    522 O1         23.7120    0.0000    4.9700 O.3     120 UNL    0.0000
    523 O3         19.2935    0.8709    6.8140 O       120 UNL    0.0000
    524 O4         22.4322    2.6834   13.5030 O       120 UNL    0.0000
    525 H11        24.2813   -0.3289    4.2743 H       120 UNL    0.0000
    526 H12        24.0444    0.8412    5.2833 H       120 UNL    0.0000
    527 Fe1        -4.4210    9.3968   14.9350 Fe      121 UNL    0.0000
    528 Fe2        -2.9640    8.5568   12.2100 Fe      121 UNL    0.0000
    529 O2         -2.9640    8.5568   16.0930 O       121 UNL    0.0000
    530 O3         -4.4190    9.3958   11.3770 O       121 UNL    0.0000
    531 Fe1        -2.9634    6.8743   14.9350 Fe      122 UNL    0.0000
    532 O1          0.0000   10.2676    9.5330 O.3     122 UNL    0.0000
    533 O3         -2.9635    6.8765   11.3770 O       122 UNL    0.0000
    534 H11         0.5695   10.5962    8.8373 H       122 UNL    0.0000
    535 H12        -0.9153   10.3874    9.2799 H       122 UNL    0.0000
    536 Fe1        -1.5076    9.3979   14.9350 Fe      123 UNL    0.0000
    537 O1         -5.9280   10.2676    9.5330 O.3     123 UNL    0.0000
    538 O3         -1.5095    9.3967   11.3770 O       123 UNL    0.0000
    539 H11        -6.4973   10.5965    8.8373 H       123 UNL    0.0000
    540 H12        -6.4325   10.1763   10.3413 H       123 UNL    0.0000
    541 Fe1         1.4570    6.0046   10.3720 Fe      124 UNL    0.0000
    542 Fe2         0.0000    6.8446    7.6470 Fe      124 UNL    0.0000
    543 Fe3         0.0000    6.8446   13.3190 Fe      124 UNL    0.0000
    544 O1          0.0000   10.2676    4.9700 O.3     124 UNL    0.0000
    545 O2          0.0000    6.8446   11.5300 O       124 UNL    0.0000
    546 O3          1.4550    6.0056    6.8140 O       124 UNL    0.0000
    547 O4         -1.6840    7.8176   13.5030 O       124 UNL    0.0000
    548 H11         0.5693    9.9387    4.2743 H       124 UNL    0.0000
    549 H12        -0.9154   10.1483    4.7169 H       124 UNL    0.0000
    550 Fe1        -0.0006    8.5271   10.3720 Fe      125 UNL    0.0000
    551 O1         -2.9640    5.1338    4.9700 O.3     125 UNL    0.0000
    552 O3         -0.0005    8.5249    6.8140 O       125 UNL    0.0000
    553 O4         -0.0002    4.9004   13.5030 O       125 UNL    0.0000
    554 H11        -3.5335    4.8052    4.2743 H       125 UNL    0.0000
    555 H12        -3.0152    4.5498    5.7267 H       125 UNL    0.0000
    556 Fe1        -1.4564    6.0035   10.3720 Fe      126 UNL    0.0000
    557 O3         -1.4545    6.0047    6.8140 O       126 UNL    0.0000
    558 O4          1.6842    7.8172   13.5030 O       126 UNL    0.0000
    559 Fe1         1.5070    9.3968   14.9350 Fe      127 UNL    0.0000
    560 Fe2         2.9640    8.5568   12.2100 Fe      127 UNL    0.0000
    561 O2          2.9640    8.5568   16.0930 O       127 UNL    0.0000
    562 O3          1.5090    9.3958   11.3770 O       127 UNL    0.0000
    563 Fe1         2.9646    6.8743   14.9350 Fe      128 UNL    0.0000
    564 O1          5.9280   10.2676    9.5330 O.3     128 UNL    0.0000
    565 O3          2.9645    6.8765   11.3770 O       128 UNL    0.0000
    566 H11         5.3587   10.5965    8.8373 H       128 UNL    0.0000
    567 H12         6.2819    9.4150    9.2799 H       128 UNL    0.0000
    568 Fe1         4.4204    9.3979   14.9350 Fe      129 UNL    0.0000
    569 O3          4.4185    9.3967   11.3770 O       129 UNL    0.0000
    570 Fe1         7.3850    6.0046   10.3720 Fe      130 UNL    0.0000
    571 Fe2         5.9280    6.8446    7.6470 Fe      130 UNL    0.0000
    572 Fe3         5.9280    6.8446   13.3190 Fe      130 UNL    0.0000
    573 O1          5.9280   10.2676    4.9700 O.3     130 UNL    0.0000
    574 O2          5.9280    6.8446   11.5300 O       130 UNL    0.0000
    575 O3          7.3830    6.0056    6.8140 O       130 UNL    0.0000
    576 O4          4.2440    7.8176   13.5030 O       130 UNL    0.0000
    577 H11         5.3585    9.9390    4.2743 H       130 UNL    0.0000
    578 H12         6.8433   10.1478    4.7169 H       130 UNL    0.0000
    579 Fe1         5.9274    8.5271   10.3720 Fe      131 UNL    0.0000
    580 O3          5.9275    8.5249    6.8140 O       131 UNL    0.0000
    581 O4          5.9278    4.9004   13.5030 O       131 UNL    0.0000
    582 Fe1         4.4716    6.0035   10.3720 Fe      132 UNL    0.0000
    583 O3          4.4735    6.0047    6.8140 O       132 UNL    0.0000
    584 O4          7.6122    7.8172   13.5030 O       132 UNL    0.0000
    585 Fe1         7.4350    9.3968   14.9350 Fe      133 UNL    0.0000
    586 Fe2         8.8920    8.5568   12.2100 Fe      133 UNL    0.0000
    587 O2          8.8920    8.5568   16.0930 O       133 UNL    0.0000
    588 O3          7.4370    9.3958   11.3770 O       133 UNL    0.0000
    589 Fe1         8.8926    6.8743   14.9350 Fe      134 UNL    0.0000
    590 O1         11.8560   10.2676    9.5330 O.3     134 UNL    0.0000
    591 O3          8.8925    6.8765   11.3770 O       134 UNL    0.0000
    592 H11        11.2867   10.5965    8.8373 H       134 UNL    0.0000
    593 H12        12.7714   10.3869    9.2799 H       134 UNL    0.0000
    594 Fe1        10.3484    9.3979   14.9350 Fe      135 UNL    0.0000
    595 O3         10.3465    9.3967   11.3770 O       135 UNL    0.0000
    596 Fe1        13.3130    6.0046   10.3720 Fe      136 UNL    0.0000
    597 Fe2        11.8560    6.8446    7.6470 Fe      136 UNL    0.0000
    598 Fe3        11.8560    6.8446   13.3190 Fe      136 UNL    0.0000
    599 O1         11.8560   10.2676    4.9700 O.3     136 UNL    0.0000
    600 O2         11.8560    6.8446   11.5300 O       136 UNL    0.0000
    601 O3         13.3110    6.0056    6.8140 O       136 UNL    0.0000
    602 O4         10.1720    7.8176   13.5030 O       136 UNL    0.0000
    603 H11        11.2865    9.9390    4.2743 H       136 UNL    0.0000
    604 H12        12.7713   10.1478    4.7169 H       136 UNL    0.0000
    605 Fe1        11.8554    8.5271   10.3720 Fe      137 UNL    0.0000
    606 O3         11.8555    8.5249    6.8140 O       137 UNL    0.0000
    607 O4         11.8558    4.9004   13.5030 O       137 UNL    0.0000
    608 Fe1        10.3996    6.0035   10.3720 Fe      138 UNL    0.0000
    609 O3         10.4015    6.0047    6.8140 O       138 UNL    0.0000
    610 O4         13.5402    7.8172   13.5030 O       138 UNL    0.0000
    611 Fe1        13.3630    9.3968   14.9350 Fe      139 UNL    0.0000
    612 Fe2        14.8200    8.5568   12.2100 Fe      139 UNL    0.0000
    613 O2         14.8200    8.5568   16.0930 O       139 UNL    0.0000
    614 O3         13.3650    9.3958   11.3770 O       139 UNL    0.0000
    615 Fe1        14.8206    6.8743   14.9350 Fe      140 UNL    0.0000
    616 O1         17.7840   10.2676    9.5330 O.3     140 UNL    0.0000
    617 O3         14.8205    6.8765   11.3770 O       140 UNL    0.0000
    618 H11        18.3535   10.5962    8.8373 H       140 UNL    0.0000
    619 H12        18.3153   10.0200   10.2897 H       140 UNL    0.0000
    620 Fe1        16.2764    9.3979   14.9350 Fe      141 UNL    0.0000
    621 O3         16.2745    9.3967   11.3770 O       141 UNL    0.0000
    622 Fe1        19.2410    6.0046   10.3720 Fe      142 UNL    0.0000
    623 Fe2        17.7840    6.8446    7.6470 Fe      142 UNL    0.0000
    624 Fe3        17.7840    6.8446   13.3190 Fe      142 UNL    0.0000
    625 O1         17.7840   10.2676    4.9700 O.3     142 UNL    0.0000
    626 O2         17.7840    6.8446   11.5300 O       142 UNL    0.0000
    627 O3         19.2390    6.0056    6.8140 O       142 UNL    0.0000
    628 O4         16.1000    7.8176   13.5030 O       142 UNL    0.0000
    629 H11        17.7842   10.9251    4.2743 H       142 UNL    0.0000
    630 H12        18.1151   10.6585    5.7786 H       142 UNL    0.0000
    631 Fe1        17.7834    8.5271   10.3720 Fe      143 UNL    0.0000
    632 O3         17.7835    8.5249    6.8140 O       143 UNL    0.0000
    633 O4         17.7838    4.9004   13.5030 O       143 UNL    0.0000
    634 Fe1        16.3276    6.0035   10.3720 Fe      144 UNL    0.0000
    635 O3         16.3295    6.0047    6.8140 O       144 UNL    0.0000
    636 O4         19.4682    7.8172   13.5030 O       144 UNL    0.0000
    637 Fe1        -7.3850   14.5306   14.9350 Fe      145 UNL    0.0000
    638 Fe2        -5.9280   13.6906   12.2100 Fe      145 UNL    0.0000
    639 O2         -5.9280   13.6906   16.0930 O       145 UNL    0.0000
    640 O3         -7.3830   14.5296   11.3770 O       145 UNL    0.0000
    641 Fe1        -5.9274   12.0081   14.9350 Fe      146 UNL    0.0000
    642 O1         -2.9640   15.4014    9.5330 O.3     146 UNL    0.0000
    643 O3         -5.9275   12.0103   11.3770 O       146 UNL    0.0000
    644 H11        -2.9642   14.7439    8.8373 H       146 UNL    0.0000
    645 H12        -2.4025   16.1342    9.2799 H       146 UNL    0.0000
    646 Fe1        -4.4716   14.5317   14.9350 Fe      147 UNL    0.0000
    647 O1         -8.8920   15.4014    9.5330 O.3     147 UNL    0.0000
    648 O3         -4.4735   14.5305   11.3770 O       147 UNL    0.0000
    649 H11        -8.8922   14.7439    8.8373 H       147 UNL    0.0000
    650 H12        -9.2231   15.0105   10.3416 H       147 UNL    0.0000
    651 Fe1        -1.5070   11.1384   10.3720 Fe      148 UNL    0.0000
    652 Fe2        -2.9640   11.9784    7.6470 Fe      148 UNL    0.0000
    653 Fe3        -2.9640   11.9784   13.3190 Fe      148 UNL    0.0000
    654 O1         -2.9640   15.4014    4.9700 O.3     148 UNL    0.0000
    655 O2         -2.9640   11.9784   11.5300 O       148 UNL    0.0000
    656 O3         -1.5090   11.1394    6.8140 O       148 UNL    0.0000
    657 O4         -4.6480   12.9514   13.5030 O       148 UNL    0.0000
    658 H11        -3.5335   15.0728    4.2743 H       148 UNL    0.0000
    659 H12        -2.0487   15.2816    4.7169 H       148 UNL    0.0000
    660 Fe1        -2.9646   13.6609   10.3720 Fe      149 UNL    0.0000
    661 O1         -5.9280   10.2676    4.9700 O.3     149 UNL    0.0000
    662 O3         -2.9645   13.6587    6.8140 O       149 UNL    0.0000
    663 O4         -2.9642   10.0342   13.5030 O       149 UNL    0.0000
    664 H11        -6.4975    9.9390    4.2743 H       149 UNL    0.0000
    665 H12        -6.4593   10.5152    5.7267 H       149 UNL    0.0000
    666 Fe1        -4.4204   11.1373   10.3720 Fe      150 UNL    0.0000
    667 O3         -4.4185   11.1385    6.8140 O       150 UNL    0.0000
    668 O4         -1.2798   12.9510   13.5030 O       150 UNL    0.0000
    669 Fe1        -1.4570   14.5306   14.9350 Fe      151 UNL    0.0000
    670 Fe2         0.0000   13.6906   12.2100 Fe      151 UNL    0.0000
    671 O2          0.0000   13.6906   16.0930 O       151 UNL    0.0000
    672 O3         -1.4550   14.5296   11.3770 O       151 UNL    0.0000
    673 Fe1         0.0006   12.0081   14.9350 Fe      152 UNL    0.0000
    674 O1          2.9640   15.4014    9.5330 O.3     152 UNL    0.0000
    675 O3          0.0005   12.0103   11.3770 O       152 UNL    0.0000
    676 H11         2.9638   14.7439    8.8373 H       152 UNL    0.0000
    677 H12         2.4030   16.1345    9.2799 H       152 UNL    0.0000
    678 Fe1         1.4564   14.5317   14.9350 Fe      153 UNL    0.0000
    679 O3          1.4545   14.5305   11.3770 O       153 UNL    0.0000
    680 Fe1         4.4210   11.1384   10.3720 Fe      154 UNL    0.0000
    681 Fe2         2.9640   11.9784    7.6470 Fe      154 UNL    0.0000
    682 Fe3         2.9640   11.9784   13.3190 Fe      154 UNL    0.0000
    683 O1          2.9640   15.4014    4.9700 O.3     154 UNL    0.0000
    684 O2          2.9640   11.9784   11.5300 O       154 UNL    0.0000
    685 O3          4.4190   11.1394    6.8140 O       154 UNL    0.0000
    686 O4          1.2800   12.9514   13.5030 O       154 UNL    0.0000
    687 H11         2.3945   15.0728    4.2743 H       154 UNL    0.0000
    688 H12         3.8793   15.2816    4.7169 H       154 UNL    0.0000
    689 Fe1         2.9634   13.6609   10.3720 Fe      155 UNL    0.0000
    690 O3          2.9635   13.6587    6.8140 O       155 UNL    0.0000
    691 O4          2.9638   10.0342   13.5030 O       155 UNL    0.0000
    692 Fe1         1.5076   11.1373   10.3720 Fe      156 UNL    0.0000
    693 O3          1.5095   11.1385    6.8140 O       156 UNL    0.0000
    694 O4          4.6482   12.9510   13.5030 O       156 UNL    0.0000
    695 Fe1         4.4710   14.5306   14.9350 Fe      157 UNL    0.0000
    696 Fe2         5.9280   13.6906   12.2100 Fe      157 UNL    0.0000
    697 O2          5.9280   13.6906   16.0930 O       157 UNL    0.0000
    698 O3          4.4730   14.5296   11.3770 O       157 UNL    0.0000
    699 Fe1         5.9286   12.0081   14.9350 Fe      158 UNL    0.0000
    700 O1          8.8920   15.4014    9.5330 O.3     158 UNL    0.0000
    701 O3          5.9285   12.0103   11.3770 O       158 UNL    0.0000
    702 H11         8.8918   14.7439    8.8373 H       158 UNL    0.0000
    703 H12         9.4535   16.1342    9.2799 H       158 UNL    0.0000
    704 Fe1         7.3844   14.5317   14.9350 Fe      159 UNL    0.0000
    705 O3          7.3825   14.5305   11.3770 O       159 UNL    0.0000
    706 Fe1        10.3490   11.1384   10.3720 Fe      160 UNL    0.0000
    707 Fe2         8.8920   11.9784    7.6470 Fe      160 UNL    0.0000
    708 Fe3         8.8920   11.9784   13.3190 Fe      160 UNL    0.0000
    709 O1          8.8920   15.4014    4.9700 O.3     160 UNL    0.0000
    710 O2          8.8920   11.9784   11.5300 O       160 UNL    0.0000
    711 O3         10.3470   11.1394    6.8140 O       160 UNL    0.0000
    712 O4          7.2080   12.9514   13.5030 O       160 UNL    0.0000
    713 H11         8.3225   15.0728    4.2743 H       160 UNL    0.0000
    714 H12         9.8073   15.2816    4.7169 H       160 UNL    0.0000
    715 Fe1         8.8914   13.6609   10.3720 Fe      161 UNL    0.0000
    716 O3          8.8915   13.6587    6.8140 O       161 UNL    0.0000
    717 O4          8.8918   10.0342   13.5030 O       161 UNL    0.0000
    718 Fe1         7.4356   11.1373   10.3720 Fe      162 UNL    0.0000
    719 O3          7.4375   11.1385    6.8140 O       162 UNL    0.0000
    720 O4         10.5762   12.9510   13.5030 O       162 UNL    0.0000
    721 Fe1        10.3990   14.5306   14.9350 Fe      163 UNL    0.0000
    722 Fe2        11.8560   13.6906   12.2100 Fe      163 UNL    0.0000
    723 O2         11.8560   13.6906   16.0930 O       163 UNL    0.0000
    724 O3         10.4010   14.5296   11.3770 O       163 UNL    0.0000
    725 Fe1        11.8566   12.0081   14.9350 Fe      164 UNL    0.0000
    726 O1         14.8200   15.4014    9.5330 O.3     164 UNL    0.0000
    727 O3         11.8565   12.0103   11.3770 O       164 UNL    0.0000
    728 H11        15.3895   15.7300    8.8373 H       164 UNL    0.0000
    729 H12        14.8712   15.9853   10.2897 H       164 UNL    0.0000
    730 Fe1        13.3124   14.5317   14.9350 Fe      165 UNL    0.0000
    731 O3         13.3105   14.5305   11.3770 O       165 UNL    0.0000
    732 Fe1        16.2770   11.1384   10.3720 Fe      166 UNL    0.0000
    733 Fe2        14.8200   11.9784    7.6470 Fe      166 UNL    0.0000
    734 Fe3        14.8200   11.9784   13.3190 Fe      166 UNL    0.0000
    735 O1         14.8200   15.4014    4.9700 O.3     166 UNL    0.0000
    736 O2         14.8200   11.9784   11.5300 O       166 UNL    0.0000
    737 O3         16.2750   11.1394    6.8140 O       166 UNL    0.0000
    738 O4         13.1360   12.9514   13.5030 O       166 UNL    0.0000
    739 H11        15.3893   15.0725    4.2743 H       166 UNL    0.0000
    740 H12        15.3245   15.4927    5.7783 H       166 UNL    0.0000
    741 Fe1        14.8194   13.6609   10.3720 Fe      167 UNL    0.0000
    742 O3         14.8195   13.6587    6.8140 O       167 UNL    0.0000
    743 O4         14.8198   10.0342   13.5030 O       167 UNL    0.0000
    744 Fe1        13.3636   11.1373   10.3720 Fe      168 UNL    0.0000
    745 O3         13.3655   11.1385    6.8140 O       168 UNL    0.0000
    746 O4         16.5042   12.9510   13.5030 O       168 UNL    0.0000
    747 Fe1       -10.3490   19.6644   14.9350 Fe      169 UNL    0.0000
    748 Fe2        -8.8920   18.8244   12.2100 Fe      169 UNL    0.0000
    749 O2         -8.8920   18.8244   16.0930 O       169 UNL    0.0000
    750 O3        -10.3470   19.6634   11.3770 O       169 UNL    0.0000
    751 Fe1        -8.8914   17.1419   14.9350 Fe      170 UNL    0.0000
    752 O1         -5.9280   20.5352    9.5330 O.3     170 UNL    0.0000
    753 O3         -8.8915   17.1441   11.3770 O       170 UNL    0.0000
    754 H11        -5.3585   20.8638    8.8373 H       170 UNL    0.0000
    755 H12        -5.7547   21.0173   10.3416 H       170 UNL    0.0000
    756 Fe1        -7.4356   19.6655   14.9350 Fe      171 UNL    0.0000
    757 O1        -11.8560   20.5352    9.5330 O.3     171 UNL    0.0000
    758 O3         -7.4375   19.6643   11.3770 O       171 UNL    0.0000
    759 H11       -12.4253   20.8641    8.8373 H       171 UNL    0.0000
    760 H12       -12.1884   19.6940    9.8463 H       171 UNL    0.0000
    761 Fe1        -4.4710   16.2722   10.3720 Fe      172 UNL    0.0000
    762 Fe2        -5.9280   17.1122    7.6470 Fe      172 UNL    0.0000
    763 Fe3        -5.9280   17.1122   13.3190 Fe      172 UNL    0.0000
    764 O1         -5.9280   20.5352    4.9700 O.3     172 UNL    0.0000
    765 O2         -5.9280   17.1122   11.5300 O       172 UNL    0.0000
    766 O3         -4.4730   16.2732    6.8140 O       172 UNL    0.0000
    767 O4         -7.6120   18.0852   13.5030 O       172 UNL    0.0000
    768 H11        -5.9278   21.1927    4.2743 H       172 UNL    0.0000
    769 H12        -6.4078   20.8719    5.7267 H       172 UNL    0.0000
    770 Fe1        -5.9286   18.7947   10.3720 Fe      173 UNL    0.0000
    771 O1         -8.8920   15.4014    4.9700 O.3     173 UNL    0.0000
    772 O3         -5.9285   18.7925    6.8140 O       173 UNL    0.0000
    773 O4         -5.9282   15.1680   13.5030 O       173 UNL    0.0000
    774 H11        -9.4615   15.0728    4.2743 H       173 UNL    0.0000
    775 H12        -9.4233   15.6490    5.7267 H       173 UNL    0.0000
    776 Fe1        -7.3844   16.2711   10.3720 Fe      174 UNL    0.0000
    777 O3         -7.3825   16.2723    6.8140 O       174 UNL    0.0000
    778 O4         -4.2438   18.0848   13.5030 O       174 UNL    0.0000
    779 Fe1        -4.4210   19.6644   14.9350 Fe      175 UNL    0.0000
    780 Fe2        -2.9640   18.8244   12.2100 Fe      175 UNL    0.0000
    781 O2         -2.9640   18.8244   16.0930 O       175 UNL    0.0000
    782 O3         -4.4190   19.6634   11.3770 O       175 UNL    0.0000
    783 Fe1        -2.9634   17.1419   14.9350 Fe      176 UNL    0.0000
    784 O1          0.0000   20.5352    9.5330 O.3     176 UNL    0.0000
    785 O3         -2.9635   17.1441   11.3770 O       176 UNL    0.0000
    786 H11        -0.5693   20.8641    8.8373 H       176 UNL    0.0000
    787 H12        -0.1729   21.0178   10.3413 H       176 UNL    0.0000
    788 Fe1        -1.5076   19.6655   14.9350 Fe      177 UNL    0.0000
    789 O3         -1.5095   19.6643   11.3770 O       177 UNL    0.0000
    790 Fe1         1.4570   16.2722   10.3720 Fe      178 UNL    0.0000
    791 Fe2         0.0000   17.1122    7.6470 Fe      178 UNL    0.0000
    792 Fe3         0.0000   17.1122   13.3190 Fe      178 UNL    0.0000
    793 O1          0.0000   20.5352    4.9700 O.3     178 UNL    0.0000
    794 O2          0.0000   17.1122   11.5300 O       178 UNL    0.0000
    795 O3          1.4550   16.2732    6.8140 O       178 UNL    0.0000
    796 O4         -1.6840   18.0852   13.5030 O       178 UNL    0.0000
    797 H11         0.0002   21.1927    4.2743 H       178 UNL    0.0000
    798 H12         0.4804   20.8712    5.7267 H       178 UNL    0.0000
    799 Fe1        -0.0006   18.7947   10.3720 Fe      179 UNL    0.0000
    800 O3         -0.0005   18.7925    6.8140 O       179 UNL    0.0000
    801 O4         -0.0002   15.1680   13.5030 O       179 UNL    0.0000
    802 Fe1        -1.4564   16.2711   10.3720 Fe      180 UNL    0.0000
    803 O3         -1.4545   16.2723    6.8140 O       180 UNL    0.0000
    804 O4          1.6842   18.0848   13.5030 O       180 UNL    0.0000
    805 Fe1         1.5070   19.6644   14.9350 Fe      181 UNL    0.0000
    806 Fe2         2.9640   18.8244   12.2100 Fe      181 UNL    0.0000
    807 O2          2.9640   18.8244   16.0930 O       181 UNL    0.0000
    808 O3          1.5090   19.6634   11.3770 O       181 UNL    0.0000
    809 Fe1         2.9646   17.1419   14.9350 Fe      182 UNL    0.0000
    810 O1          5.9280   20.5352    9.5330 O.3     182 UNL    0.0000
    811 O3          2.9645   17.1441   11.3770 O       182 UNL    0.0000
    812 H11         5.3587   20.8641    8.8373 H       182 UNL    0.0000
    813 H12         5.7551   21.0178   10.3413 H       182 UNL    0.0000
    814 Fe1         4.4204   19.6655   14.9350 Fe      183 UNL    0.0000
    815 O3          4.4185   19.6643   11.3770 O       183 UNL    0.0000
    816 Fe1         7.3850   16.2722   10.3720 Fe      184 UNL    0.0000
    817 Fe2         5.9280   17.1122    7.6470 Fe      184 UNL    0.0000
    818 Fe3         5.9280   17.1122   13.3190 Fe      184 UNL    0.0000
    819 O1          5.9280   20.5352    4.9700 O.3     184 UNL    0.0000
    820 O2          5.9280   17.1122   11.5300 O       184 UNL    0.0000
    821 O3          7.3830   16.2732    6.8140 O       184 UNL    0.0000
    822 O4          4.2440   18.0852   13.5030 O       184 UNL    0.0000
    823 H11         5.9282   21.1927    4.2743 H       184 UNL    0.0000
    824 H12         6.4084   20.8712    5.7267 H       184 UNL    0.0000
    825 Fe1         5.9274   18.7947   10.3720 Fe      185 UNL    0.0000
    826 O3          5.9275   18.7925    6.8140 O       185 UNL    0.0000
    827 O4          5.9278   15.1680   13.5030 O       185 UNL    0.0000
    828 Fe1         4.4716   16.2711   10.3720 Fe      186 UNL    0.0000
    829 O3          4.4735   16.2723    6.8140 O       186 UNL    0.0000
    830 O4          7.6122   18.0848   13.5030 O       186 UNL    0.0000
    831 Fe1         7.4350   19.6644   14.9350 Fe      187 UNL    0.0000
    832 Fe2         8.8920   18.8244   12.2100 Fe      187 UNL    0.0000
    833 O2          8.8920   18.8244   16.0930 O       187 UNL    0.0000
    834 O3          7.4370   19.6634   11.3770 O       187 UNL    0.0000
    835 Fe1         8.8926   17.1419   14.9350 Fe      188 UNL    0.0000
    836 O1         11.8560   20.5352    9.5330 O.3     188 UNL    0.0000
    837 O3          8.8925   17.1441   11.3770 O       188 UNL    0.0000
    838 H11        12.4255   20.8638    8.8373 H       188 UNL    0.0000
    839 H12        12.3873   20.2876   10.2897 H       188 UNL    0.0000
    840 Fe1        10.3484   19.6655   14.9350 Fe      189 UNL    0.0000
    841 O3         10.3465   19.6643   11.3770 O       189 UNL    0.0000
    842 Fe1        13.3130   16.2722   10.3720 Fe      190 UNL    0.0000
    843 Fe2        11.8560   17.1122    7.6470 Fe      190 UNL    0.0000
    844 Fe3        11.8560   17.1122   13.3190 Fe      190 UNL    0.0000
    845 O1         11.8560   20.5352    4.9700 O.3     190 UNL    0.0000
    846 O2         11.8560   17.1122   11.5300 O       190 UNL    0.0000
    847 O3         13.3110   16.2732    6.8140 O       190 UNL    0.0000
    848 O4         10.1720   18.0852   13.5030 O       190 UNL    0.0000
    849 H11        11.8562   21.1927    4.2743 H       190 UNL    0.0000
    850 H12        11.3762   20.8719    5.7267 H       190 UNL    0.0000
    851 Fe1        11.8554   18.7947   10.3720 Fe      191 UNL    0.0000
    852 O3         11.8555   18.7925    6.8140 O       191 UNL    0.0000
    853 O4         11.8558   15.1680   13.5030 O       191 UNL    0.0000
    854 Fe1        10.3996   16.2711   10.3720 Fe      192 UNL    0.0000
    855 O3         10.4015   16.2723    6.8140 O       192 UNL    0.0000
    856 O4         13.5402   18.0848   13.5030 O       192 UNL    0.0000
@<TRIPOS>BOND
     1    1    5 1
     2    2    6 1
     3    3    5 1
     4    3    7 1
     5   22   24 1
     6   23   24 1
     7   23   25 1
     8   30   34 1
     9   31   35 1
    10   32   34 1
    11   32   36 1
    12   48   50 1
    13   49   50 1
    14   49   51 1
    15   56   60 1
    16   57   61 1
    17   58   60 1
    18   58   62 1
    19   74   76 1
    20   75   76 1
    21   75   77 1
    22   82   86 1
    23   83   87 1
    24   84   86 1
    25   84   88 1
    26  100  102 1
    27  101  102 1
    28  101  103 1
    29  108  111 1
    30  109  112 1
    31  110  111 1
    32  110  113 1
    33  126  128 1
    34  127  128 1
    35  127  129 1
    36  134  137 1
    37  135  138 1
    38  136  137 1
    39  136  139 1
    40  149  151 1
    41  150  151 1
    42  150  152 1
    43  157  160 1
    44  158  161 1
    45  159  160 1
    46  159  162 1
    47  172  174 1
    48  173  174 1
    49  173  175 1
    50  180  183 1
    51  181  184 1
    52  182  183 1
    53  182  185 1
    54  195  197 1
    55  196  197 1
    56  196  198 1
    57  203  206 1
    58  204  207 1
    59  205  206 1
    60  205  208 1
    61  221  223 1
    62  222  223 1
    63  222  224 1
    64  229  232 1
    65  230  233 1
    66  231  232 1
    67  231  234 1
    68  244  246 1
    69  245  246 1
    70  245  247 1
    71  252  255 1
    72  253  256 1
    73  254  255 1
    74  254  257 1
    75  267  269 1
    76  268  269 1
    77  268  270 1
    78  275  278 1
    79  276  279 1
    80  277  278 1
    81  277  280 1
    82  290  292 1
    83  291  292 1
    84  291  293 1
    85  298  301 1
    86  299  302 1
    87  300  301 1
    88  300  303 1
    89  316  318 1
    90  317  318 1
    91  317  319 1
    92  324  327 1
    93  325  328 1
    94  326  327 1
    95  326  329 1
    96  339  341 1
    97  340  341 1
    98  340  342 1
    99  347  350 1
   100  348  351 1
   101  349  350 1
   102  349  352 1
   103  362  364 1
   104  363  364 1
   105  363  365 1
   106  370  373 1
   107  371  374 1
   108  372  373 1
   109  372  375 1
   110  385  387 1
   111  386  387 1
   112  386  388 1
   113  393  396 1
   114  394  397 1
   115  410  414 1
   116  411  415 1
   117  412  414 1
   118  412  416 1
   119  431  434 1
   120  432  435 1
   121  445  449 1
   122  446  450 1
   123  447  449 1
   124  447  451 1
   125  463  466 1
   126  464  467 1
   127  477  481 1
   128  478  482 1
   129  479  481 1
   130  479  483 1
   131  495  498 1
   132  496  499 1
   133  509  513 1
   134  510  514 1
   135  511  513 1
   136  511  515 1
   137  527  529 1
   138  528  530 1
   139  541  545 1
   140  542  546 1
   141  543  545 1
   142  543  547 1
   143  559  561 1
   144  560  562 1
   145  570  574 1
   146  571  575 1
   147  572  574 1
   148  572  576 1
   149  585  587 1
   150  586  588 1
   151  596  600 1
   152  597  601 1
   153  598  600 1
   154  598  602 1
   155  611  613 1
   156  612  614 1
   157  622  626 1
   158  623  627 1
   159  624  626 1
   160  624  628 1
   161  637  639 1
   162  638  640 1
   163  651  655 1
   164  652  656 1
   165  653  655 1
   166  653  657 1
   167  669  671 1
   168  670  672 1
   169  680  684 1
   170  681  685 1
   171  682  684 1
   172  682  686 1
   173  695  697 1
   174  696  698 1
   175  706  710 1
   176  707  711 1
   177  708  710 1
   178  708  712 1
   179  721  723 1
   180  722  724 1
   181  732  736 1
   182  733  737 1
   183  734  736 1
   184  734  738 1
   185  747  749 1
   186  748  750 1
   187  761  765 1
   188  762  766 1
   189  763  765 1
   190  763  767 1
   191  779  781 1
   192  780  782 1
   193  790  794 1
   194  791  795 1
   195  792  794 1
   196  792  796 1
   197  805  807 1
   198  806  808 1
   199  816  820 1
   200  817  821 1
   201  818  820 1
   202  818  822 1
   203  831  833 1
   204  832  834 1
   205  842  846 1
   206  843  847 1
   207  844  846 1
   208  844  848 1
   209    1  131 1
   210    1  557 1
   211    2   12 1
   212    2   18 1
   213    2   25 1
   214    2  131 1
   215    3   13 1
   216    3   19 1
   217    5   10 1
   218    5   16 1
   219    6  132 1
   220    7  411 1
   221    7  419 1
   222    7  425 1
   223   10   25 1
   224   10  427 1
   225   12   28 1
   226   13  541 1
   227   13  542 1
   228   13  556 1
   229   16   25 1
   230   16  131 1
   231   16  421 1
   232   16  546 1
   233   18   26 1
   234   18  126 1
   235   22   41 1
   236   23   27 1
   237   23   29 1
   238   24   26 1
   239   24   28 1
   240   26   35 1
   241   29   30 1
   242   29   31 1
   243   29   39 1
   244   30  154 1
   245   30  421 1
   246   30  583 1
   247   31   41 1
   248   31   46 1
   249   31   51 1
   250   31  154 1
   251   32   42 1
   252   32   47 1
   253   34   39 1
   254   34   45 1
   255   35  155 1
   256   36  446 1
   257   36  454 1
   258   36  457 1
   259   39   51 1
   260   39  415 1
   261   39  459 1
   262   41   54 1
   263   42  570 1
   264   42  571 1
   265   42  582 1
   266   45   51 1
   267   45  154 1
   268   45  455 1
   269   45  575 1
   270   46   52 1
   271   46  149 1
   272   47  410 1
   273   47  411 1
   274   47  419 1
   275   48   67 1
   276   49   53 1
   277   49   55 1
   278   50   52 1
   279   50   54 1
   280   52   61 1
   281   55   56 1
   282   55   57 1
   283   55   65 1
   284   56  177 1
   285   56  455 1
   286   56  609 1
   287   57   67 1
   288   57   72 1
   289   57   77 1
   290   57  177 1
   291   58   68 1
   292   58   73 1
   293   60   65 1
   294   60   71 1
   295   61  178 1
   296   62  478 1
   297   62  486 1
   298   62  489 1
   299   65   77 1
   300   65  450 1
   301   65  491 1
   302   67   80 1
   303   68  596 1
   304   68  597 1
   305   68  608 1
   306   71   77 1
   307   71  177 1
   308   71  487 1
   309   71  601 1
   310   72   78 1
   311   72  172 1
   312   73  445 1
   313   73  446 1
   314   73  454 1
   315   74   93 1
   316   75   79 1
   317   75   81 1
   318   76   78 1
   319   76   80 1
   320   78   87 1
   321   81   82 1
   322   81   83 1
   323   81   91 1
   324   82  200 1
   325   82  487 1
   326   82  635 1
   327   83   93 1
   328   83   98 1
   329   83  103 1
   330   83  200 1
   331   84   94 1
   332   84   99 1
   333   86   91 1
   334   86   97 1
   335   87  201 1
   336   88  510 1
   337   88  518 1
   338   88  521 1
   339   91  103 1
   340   91  482 1
   341   91  523 1
   342   93  106 1
   343   94  622 1
   344   94  623 1
   345   94  634 1
   346   97  103 1
   347   97  200 1
   348   97  519 1
   349   97  627 1
   350   98  104 1
   351   98  195 1
   352   99  477 1
   353   99  478 1
   354   99  486 1
   355  101  105 1
   356  101  107 1
   357  102  104 1
   358  102  106 1
   359  108  226 1
   360  108  667 1
   361  109  116 1
   362  109  122 1
   363  109  129 1
   364  109  226 1
   365  110  117 1
   366  110  123 1
   367  111  114 1
   368  111  120 1
   369  112  227 1
   370  113  542 1
   371  113  550 1
   372  113  556 1
   373  114  129 1
   374  114  557 1
   375  116  132 1
   376  117  651 1
   377  117  652 1
   378  117  666 1
   379  120  129 1
   380  120  226 1
   381  120  552 1
   382  120  656 1
   383  122  130 1
   384  122  221 1
   385  126  142 1
   386  127  131 1
   387  127  133 1
   388  128  130 1
   389  128  132 1
   390  130  138 1
   391  133  134 1
   392  133  135 1
   393  133  140 1
   394  134  249 1
   395  134  552 1
   396  134  693 1
   397  135  142 1
   398  135  147 1
   399  135  152 1
   400  135  249 1
   401  136  143 1
   402  136  148 1
   403  137  140 1
   404  137  146 1
   405  138  250 1
   406  139  571 1
   407  139  579 1
   408  139  582 1
   409  140  152 1
   410  140  546 1
   411  140  583 1
   412  142  155 1
   413  143  680 1
   414  143  681 1
   415  143  692 1
   416  146  152 1
   417  146  249 1
   418  146  580 1
   419  146  685 1
   420  147  153 1
   421  147  244 1
   422  148  541 1
   423  148  542 1
   424  148  550 1
   425  149  165 1
   426  150  154 1
   427  150  156 1
   428  151  153 1
   429  151  155 1
   430  153  161 1
   431  156  157 1
   432  156  158 1
   433  156  163 1
   434  157  272 1
   435  157  580 1
   436  157  719 1
   437  158  165 1
   438  158  170 1
   439  158  175 1
   440  158  272 1
   441  159  166 1
   442  159  171 1
   443  160  163 1
   444  160  169 1
   445  161  273 1
   446  162  597 1
   447  162  605 1
   448  162  608 1
   449  163  175 1
   450  163  575 1
   451  163  609 1
   452  165  178 1
   453  166  706 1
   454  166  707 1
   455  166  718 1
   456  169  175 1
   457  169  272 1
   458  169  606 1
   459  169  711 1
   460  170  176 1
   461  170  267 1
   462  171  570 1
   463  171  571 1
   464  171  579 1
   465  172  188 1
   466  173  177 1
   467  173  179 1
   468  174  176 1
   469  174  178 1
   470  176  184 1
   471  179  180 1
   472  179  181 1
   473  179  186 1
   474  180  295 1
   475  180  606 1
   476  180  745 1
   477  181  188 1
   478  181  193 1
   479  181  198 1
   480  181  295 1
   481  182  189 1
   482  182  194 1
   483  183  186 1
   484  183  192 1
   485  184  296 1
   486  185  623 1
   487  185  631 1
   488  185  634 1
   489  186  198 1
   490  186  601 1
   491  186  635 1
   492  188  201 1
   493  189  732 1
   494  189  733 1
   495  189  744 1
   496  192  198 1
   497  192  295 1
   498  192  632 1
   499  192  737 1
   500  193  199 1
   501  193  290 1
   502  194  596 1
   503  194  597 1
   504  194  605 1
   505  196  200 1
   506  196  202 1
   507  197  199 1
   508  197  201 1
   509  203  321 1
   510  203  777 1
   511  204  211 1
   512  204  217 1
   513  204  224 1
   514  204  321 1
   515  205  212 1
   516  205  218 1
   517  206  209 1
   518  206  215 1
   519  207  322 1
   520  208  652 1
   521  208  660 1
   522  208  666 1
   523  209  224 1
   524  209  667 1
   525  211  227 1
   526  212  761 1
   527  212  762 1
   528  212  776 1
   529  215  224 1
   530  215  321 1
   531  215  662 1
   532  215  766 1
   533  217  225 1
   534  217  316 1
   535  221  237 1
   536  222  226 1
   537  222  228 1
   538  223  225 1
   539  223  227 1
   540  225  233 1
   541  228  229 1
   542  228  230 1
   543  228  235 1
   544  229  344 1
   545  229  662 1
   546  229  803 1
   547  230  237 1
   548  230  242 1
   549  230  247 1
   550  230  344 1
   551  231  238 1
   552  231  243 1
   553  232  235 1
   554  232  241 1
   555  233  345 1
   556  234  681 1
   557  234  689 1
   558  234  692 1
   559  235  247 1
   560  235  656 1
   561  235  693 1
   562  237  250 1
   563  238  790 1
   564  238  791 1
   565  238  802 1
   566  241  247 1
   567  241  344 1
   568  241  690 1
   569  241  795 1
   570  242  248 1
   571  242  339 1
   572  243  651 1
   573  243  652 1
   574  243  660 1
   575  244  260 1
   576  245  249 1
   577  245  251 1
   578  246  248 1
   579  246  250 1
   580  248  256 1
   581  251  252 1
   582  251  253 1
   583  251  258 1
   584  252  367 1
   585  252  690 1
   586  252  829 1
   587  253  260 1
   588  253  265 1
   589  253  270 1
   590  253  367 1
   591  254  261 1
   592  254  266 1
   593  255  258 1
   594  255  264 1
   595  256  368 1
   596  257  707 1
   597  257  715 1
   598  257  718 1
   599  258  270 1
   600  258  685 1
   601  258  719 1
   602  260  273 1
   603  261  816 1
   604  261  817 1
   605  261  828 1
   606  264  270 1
   607  264  367 1
   608  264  716 1
   609  264  821 1
   610  265  271 1
   611  265  362 1
   612  266  680 1
   613  266  681 1
   614  266  689 1
   615  267  283 1
   616  268  272 1
   617  268  274 1
   618  269  271 1
   619  269  273 1
   620  271  279 1
   621  274  275 1
   622  274  276 1
   623  274  281 1
   624  275  390 1
   625  275  716 1
   626  275  855 1
   627  276  283 1
   628  276  288 1
   629  276  293 1
   630  276  390 1
   631  277  284 1
   632  277  289 1
   633  278  281 1
   634  278  287 1
   635  279  391 1
   636  280  733 1
   637  280  741 1
   638  280  744 1
   639  281  293 1
   640  281  711 1
   641  281  745 1
   642  283  296 1
   643  284  842 1
   644  284  843 1
   645  284  854 1
   646  287  293 1
   647  287  390 1
   648  287  742 1
   649  287  847 1
   650  288  294 1
   651  288  385 1
   652  289  706 1
   653  289  707 1
   654  289  715 1
   655  291  295 1
   656  291  297 1
   657  292  294 1
   658  292  296 1
   659  299  306 1
   660  299  312 1
   661  299  319 1
   662  300  307 1
   663  300  313 1
   664  301  304 1
   665  301  310 1
   666  303  762 1
   667  303  770 1
   668  303  776 1
   669  304  319 1
   670  304  777 1
   671  306  322 1
   672  310  319 1
   673  310  772 1
   674  312  320 1
   675  316  332 1
   676  317  321 1
   677  317  323 1
   678  318  320 1
   679  318  322 1
   680  320  328 1
   681  323  324 1
   682  323  325 1
   683  323  330 1
   684  324  772 1
   685  325  332 1
   686  325  337 1
   687  325  342 1
   688  326  333 1
   689  326  338 1
   690  327  330 1
   691  327  336 1
   692  329  791 1
   693  329  799 1
   694  329  802 1
   695  330  342 1
   696  330  766 1
   697  330  803 1
   698  332  345 1
   699  336  342 1
   700  336  800 1
   701  337  343 1
   702  338  761 1
   703  338  762 1
   704  338  770 1
   705  339  355 1
   706  340  344 1
   707  340  346 1
   708  341  343 1
   709  341  345 1
   710  343  351 1
   711  346  347 1
   712  346  348 1
   713  346  353 1
   714  347  800 1
   715  348  355 1
   716  348  360 1
   717  348  365 1
   718  349  356 1
   719  349  361 1
   720  350  353 1
   721  350  359 1
   722  352  817 1
   723  352  825 1
   724  352  828 1
   725  353  365 1
   726  353  795 1
   727  353  829 1
   728  355  368 1
   729  359  365 1
   730  359  826 1
   731  360  366 1
   732  361  790 1
   733  361  791 1
   734  361  799 1
   735  362  378 1
   736  363  367 1
   737  363  369 1
   738  364  366 1
   739  364  368 1
   740  366  374 1
   741  369  370 1
   742  369  371 1
   743  369  376 1
   744  370  826 1
   745  371  378 1
   746  371  383 1
   747  371  388 1
   748  372  379 1
   749  372  384 1
   750  373  376 1
   751  373  382 1
   752  375  843 1
   753  375  851 1
   754  375  854 1
   755  376  388 1
   756  376  821 1
   757  376  855 1
   758  378  391 1
   759  382  388 1
   760  382  852 1
   761  383  389 1
   762  384  816 1
   763  384  817 1
   764  384  825 1
   765  386  390 1
   766  386  392 1
   767  387  389 1
   768  387  391 1
   769  393  553 1
   770  394  402 1
   771  394  407 1
   772  394  416 1
   773  394  553 1
   774  396  400 1
   775  396  405 1
   776  397  556 1
   777  400  416 1
   778  402  425 1
   779  405  416 1
   780  405  553 1
   781  407  419 1
   782  407  541 1
   783  410  440 1
   784  411  421 1
   785  411  427 1
   786  412  422 1
   787  412  428 1
   788  414  419 1
   789  414  425 1
   790  419  435 1
   791  428  431 1
   792  428  432 1
   793  428  438 1
   794  431  581 1
   795  432  440 1
   796  432  444 1
   797  432  451 1
   798  432  581 1
   799  434  438 1
   800  434  443 1
   801  435  582 1
   802  438  451 1
   803  440  457 1
   804  443  451 1
   805  443  581 1
   806  444  454 1
   807  444  570 1
   808  445  472 1
   809  446  455 1
   810  446  459 1
   811  447  456 1
   812  447  460 1
   813  449  454 1
   814  449  457 1
   815  454  467 1
   816  460  463 1
   817  460  464 1
   818  460  470 1
   819  463  607 1
   820  464  472 1
   821  464  476 1
   822  464  483 1
   823  464  607 1
   824  466  470 1
   825  466  475 1
   826  467  608 1
   827  470  483 1
   828  472  489 1
   829  475  483 1
   830  475  607 1
   831  476  486 1
   832  476  596 1
   833  477  504 1
   834  478  487 1
   835  478  491 1
   836  479  488 1
   837  479  492 1
   838  481  486 1
   839  481  489 1
   840  486  499 1
   841  492  495 1
   842  492  496 1
   843  492  502 1
   844  495  633 1
   845  496  504 1
   846  496  508 1
   847  496  515 1
   848  496  633 1
   849  498  502 1
   850  498  507 1
   851  499  634 1
   852  502  515 1
   853  504  521 1
   854  507  515 1
   855  507  633 1
   856  508  518 1
   857  508  622 1
   858  510  519 1
   859  510  523 1
   860  511  520 1
   861  511  524 1
   862  513  518 1
   863  513  521 1
   864  527  663 1
   865  528  533 1
   866  528  538 1
   867  528  547 1
   868  528  663 1
   869  529  531 1
   870  529  536 1
   871  530  666 1
   872  531  547 1
   873  533  556 1
   874  536  547 1
   875  536  663 1
   876  538  550 1
   877  538  651 1
   878  541  565 1
   879  542  552 1
   880  542  557 1
   881  543  553 1
   882  543  558 1
   883  545  550 1
   884  545  556 1
   885  550  562 1
   886  558  559 1
   887  558  560 1
   888  558  563 1
   889  559  691 1
   890  560  565 1
   891  560  569 1
   892  560  576 1
   893  560  691 1
   894  561  563 1
   895  561  568 1
   896  562  692 1
   897  563  576 1
   898  565  582 1
   899  568  576 1
   900  568  691 1
   901  569  579 1
   902  569  680 1
   903  570  591 1
   904  571  580 1
   905  571  583 1
   906  572  581 1
   907  572  584 1
   908  574  579 1
   909  574  582 1
   910  579  588 1
   911  584  585 1
   912  584  586 1
   913  584  589 1
   914  585  717 1
   915  586  591 1
   916  586  595 1
   917  586  602 1
   918  586  717 1
   919  587  589 1
   920  587  594 1
   921  588  718 1
   922  589  602 1
   923  591  608 1
   924  594  602 1
   925  594  717 1
   926  595  605 1
   927  595  706 1
   928  596  617 1
   929  597  606 1
   930  597  609 1
   931  598  607 1
   932  598  610 1
   933  600  605 1
   934  600  608 1
   935  605  614 1
   936  610  611 1
   937  610  612 1
   938  610  615 1
   939  611  743 1
   940  612  617 1
   941  612  621 1
   942  612  628 1
   943  612  743 1
   944  613  615 1
   945  613  620 1
   946  614  744 1
   947  615  628 1
   948  617  634 1
   949  620  628 1
   950  620  743 1
   951  621  631 1
   952  621  732 1
   953  623  632 1
   954  623  635 1
   955  624  633 1
   956  624  636 1
   957  626  631 1
   958  626  634 1
   959  637  773 1
   960  638  643 1
   961  638  648 1
   962  638  657 1
   963  638  773 1
   964  639  641 1
   965  639  646 1
   966  640  776 1
   967  641  657 1
   968  643  666 1
   969  646  657 1
   970  646  773 1
   971  648  660 1
   972  648  761 1
   973  651  675 1
   974  652  662 1
   975  652  667 1
   976  653  663 1
   977  653  668 1
   978  655  660 1
   979  655  666 1
   980  660  672 1
   981  668  669 1
   982  668  670 1
   983  668  673 1
   984  669  801 1
   985  670  675 1
   986  670  679 1
   987  670  686 1
   988  670  801 1
   989  671  673 1
   990  671  678 1
   991  672  802 1
   992  673  686 1
   993  675  692 1
   994  678  686 1
   995  678  801 1
   996  679  689 1
   997  679  790 1
   998  680  701 1
   999  681  690 1
  1000  681  693 1
  1001  682  691 1
  1002  682  694 1
  1003  684  689 1
  1004  684  692 1
  1005  689  698 1
  1006  694  695 1
  1007  694  696 1
  1008  694  699 1
  1009  695  827 1
  1010  696  701 1
  1011  696  705 1
  1012  696  712 1
  1013  696  827 1
  1014  697  699 1
  1015  697  704 1
  1016  698  828 1
  1017  699  712 1
  1018  701  718 1
  1019  704  712 1
  1020  704  827 1
  1021  705  715 1
  1022  705  816 1
  1023  706  727 1
  1024  707  716 1
  1025  707  719 1
  1026  708  717 1
  1027  708  720 1
  1028  710  715 1
  1029  710  718 1
  1030  715  724 1
  1031  720  721 1
  1032  720  722 1
  1033  720  725 1
  1034  721  853 1
  1035  722  727 1
  1036  722  731 1
  1037  722  738 1
  1038  722  853 1
  1039  723  725 1
  1040  723  730 1
  1041  724  854 1
  1042  725  738 1
  1043  727  744 1
  1044  730  738 1
  1045  730  853 1
  1046  731  741 1
  1047  731  842 1
  1048  733  742 1
  1049  733  745 1
  1050  734  743 1
  1051  734  746 1
  1052  736  741 1
  1053  736  744 1
  1054  748  753 1
  1055  748  758 1
  1056  748  767 1
  1057  749  751 1
  1058  749  756 1
  1059  751  767 1
  1060  753  776 1
  1061  756  767 1
  1062  758  770 1
  1063  761  785 1
  1064  762  772 1
  1065  762  777 1
  1066  763  773 1
  1067  763  778 1
  1068  765  770 1
  1069  765  776 1
  1070  770  782 1
  1071  778  779 1
  1072  778  780 1
  1073  778  783 1
  1074  780  785 1
  1075  780  789 1
  1076  780  796 1
  1077  781  783 1
  1078  781  788 1
  1079  783  796 1
  1080  785  802 1
  1081  788  796 1
  1082  789  799 1
  1083  790  811 1
  1084  791  800 1
  1085  791  803 1
  1086  792  801 1
  1087  792  804 1
  1088  794  799 1
  1089  794  802 1
  1090  799  808 1
  1091  804  805 1
  1092  804  806 1
  1093  804  809 1
  1094  806  811 1
  1095  806  815 1
  1096  806  822 1
  1097  807  809 1
  1098  807  814 1
  1099  809  822 1
  1100  811  828 1
  1101  814  822 1
  1102  815  825 1
  1103  816  837 1
  1104  817  826 1
  1105  817  829 1
  1106  818  827 1
  1107  818  830 1
  1108  820  825 1
  1109  820  828 1
  1110  825  834 1
  1111  830  831 1
  1112  830  832 1
  1113  830  835 1
  1114  832  837 1
  1115  832  841 1
  1116  832  848 1
  1117  833  835 1
  1118  833  840 1
  1119  835  848 1
  1120  837  854 1
  1121  840  848 1
  1122  841  851 1
  1123  843  852 1
  1124  843  855 1
  1125  844  853 1
  1126  844  856 1
  1127  846  851 1
  1128  846  854 1
  1129    8    4 1
  1130    9    4 1
  1131   14   11 1
  1132   15   11 1
  1133   20   17 1
  1134   21   17 1
  1135   37   33 1
  1136   38   33 1
  1137   43   40 1
  1138   44   40 1
  1139   63   59 1
  1140   64   59 1
  1141   69   66 1
  1142   70   66 1
  1143   89   85 1
  1144   90   85 1
  1145   95   92 1
  1146   96   92 1
  1147  118  115 1
  1148  119  115 1
  1149  124  121 1
  1150  125  121 1
  1151  144  141 1
  1152  145  141 1
  1153  167  164 1
  1154  168  164 1
  1155  190  187 1
  1156  191  187 1
  1157  213  210 1
  1158  214  210 1
  1159  219  216 1
  1160  220  216 1
  1161  239  236 1
  1162  240  236 1
  1163  262  259 1
  1164  263  259 1
  1165  285  282 1
  1166  286  282 1
  1167  308  305 1
  1168  309  305 1
  1169  314  311 1
  1170  315  311 1
  1171  334  331 1
  1172  335  331 1
  1173  357  354 1
  1174  358  354 1
  1175  380  377 1
  1176  381  377 1
  1177  398  395 1
  1178  399  395 1
  1179  403  401 1
  1180  404  401 1
  1181  408  406 1
  1182  409  406 1
  1183  417  413 1
  1184  418  413 1
  1185  423  420 1
  1186  424  420 1
  1187  429  426 1
  1188  430  426 1
  1189  436  433 1
  1190  437  433 1
  1191  441  439 1
  1192  442  439 1
  1193  452  448 1
  1194  453  448 1
  1195  461  458 1
  1196  462  458 1
  1197  468  465 1
  1198  469  465 1
  1199  473  471 1
  1200  474  471 1
  1201  484  480 1
  1202  485  480 1
  1203  493  490 1
  1204  494  490 1
  1205  500  497 1
  1206  501  497 1
  1207  505  503 1
  1208  506  503 1
  1209  516  512 1
  1210  517  512 1
  1211  525  522 1
  1212  526  522 1
  1213  534  532 1
  1214  535  532 1
  1215  539  537 1
  1216  540  537 1
  1217  548  544 1
  1218  549  544 1
  1219  554  551 1
  1220  555  551 1
  1221  566  564 1
  1222  567  564 1
  1223  577  573 1
  1224  578  573 1
  1225  592  590 1
  1226  593  590 1
  1227  603  599 1
  1228  604  599 1
  1229  618  616 1
  1230  619  616 1
  1231  629  625 1
  1232  630  625 1
  1233  644  642 1
  1234  645  642 1
  1235  649  647 1
  1236  650  647 1
  1237  658  654 1
  1238  659  654 1
  1239  664  661 1
  1240  665  661 1
  1241  676  674 1
  1242  677  674 1
  1243  687  683 1
  1244  688  683 1
  1245  702  700 1
  1246  703  700 1
  1247  713  709 1
  1248  714  709 1
  1249  728  726 1
  1250  729  726 1
  1251  739  735 1
  1252  740  735 1
  1253  754  752 1
  1254  755  752 1
  1255  759  757 1
  1256  760  757 1
  1257  768  764 1
  1258  769  764 1
  1259  774  771 1
  1260  775  771 1
  1261  786  784 1
  1262  787  784 1
  1263  797  793 1
  1264  798  793 1
  1265  812  810 1
  1266  813  810 1
  1267  823  819 1
  1268  824  819 1
  1269  838  836 1
  1270  839  836 1
  1271  849  845 1
  1272  850  845 1
@<TRIPOS>SUBSTRUCTURE
     1 UNL     1 RESIDUE           4 A     UNL    14 ROOT
     2 UNL    10 RESIDUE           4 B     UNL     9 ROOT
     3 UNL    16 RESIDUE           4 C     UNL     9 ROOT
     4 UNL    22 RESIDUE           4 D     UNL     8 ROOT
     5 UNL    26 RESIDUE           4 E     UNL     4 ROOT
     6 UNL    28 RESIDUE           4 F     UNL     6 ROOT
     7 UNL    30 RESIDUE           4 M     UNL    18 ROOT
     8 UNL    39 RESIDUE           4 N     UNL    12 ROOT
     9 UNL    45 RESIDUE           4 O     UNL    12 ROOT
    10 UNL    48 RESIDUE           4 P     UNL     8 ROOT
    11 UNL    52 RESIDUE           4 Q     UNL     4 ROOT
    12 UNL    54 RESIDUE           4 R     UNL     6 ROOT
    13 UNL    56 RESIDUE           4 Y     UNL    18 ROOT
    14 UNL    65 RESIDUE           4 Z     UNL    12 ROOT
    15 UNL    71 RESIDUE           4 a     UNL    12 ROOT
    16 UNL    74 RESIDUE           4 b     UNL     8 ROOT
    17 UNL    78 RESIDUE           4 c     UNL     4 ROOT
    18 UNL    80 RESIDUE           4 d     UNL     6 ROOT
    19 UNL    82 RESIDUE           4 k     UNL    18 ROOT
    20 UNL    91 RESIDUE           4 l     UNL    12 ROOT
    21 UNL    97 RESIDUE           4 m     UNL    12 ROOT
    22 UNL   100 RESIDUE           4 n     UNL     7 ROOT
    23 UNL   104 RESIDUE           4 o     UNL     3 ROOT
    24 UNL   106 RESIDUE           4 p     UNL     3 ROOT
    25 UNL   108 RESIDUE           4 w     UNL    14 ROOT
    26 UNL   114 RESIDUE           4 x     UNL     9 ROOT
    27 UNL   120 RESIDUE           4 y     UNL     9 ROOT
    28 UNL   126 RESIDUE           4 z     UNL     9 ROOT
    29 UNL   130 RESIDUE           4 1     UNL     7 ROOT
    30 UNL   132 RESIDUE           4 2     UNL     7 ROOT
    31 UNL   134 RESIDUE           4 9     UNL    18 ROOT
    32 UNL   140 RESIDUE           4 0     UNL    12 ROOT
    33 UNL   146 RESIDUE           4 0A    UNL    12 ROOT
    34 UNL   149 RESIDUE           4 0B    UNL     9 ROOT
    35 UNL   153 RESIDUE           4 0C    UNL     7 ROOT
    36 UNL   155 RESIDUE           4 0D    UNL     7 ROOT
    37 UNL   157 RESIDUE           4 0K    UNL    18 ROOT
    38 UNL   163 RESIDUE           4 0L    UNL    12 ROOT
    39 UNL   169 RESIDUE           4 0M    UNL    12 ROOT
    40 UNL   172 RESIDUE           4 0N    UNL     9 ROOT
    41 UNL   176 RESIDUE           4 0O    UNL     7 ROOT
    42 UNL   178 RESIDUE           4 0P    UNL     7 ROOT
    43 UNL   180 RESIDUE           4 0W    UNL    18 ROOT
    44 UNL   186 RESIDUE           4 0X    UNL    12 ROOT
    45 UNL   192 RESIDUE           4 0Y    UNL    12 ROOT
    46 UNL   195 RESIDUE           4 0Z    UNL     8 ROOT
    47 UNL   199 RESIDUE           4 0a    UNL     6 ROOT
    48 UNL   201 RESIDUE           4 0b    UNL     4 ROOT
    49 UNL   203 RESIDUE           4 0i    UNL    14 ROOT
    50 UNL   209 RESIDUE           4 0j    UNL     9 ROOT
    51 UNL   215 RESIDUE           4 0k    UNL     9 ROOT
    52 UNL   221 RESIDUE           4 0l    UNL     9 ROOT
    53 UNL   225 RESIDUE           4 0m    UNL     7 ROOT
    54 UNL   227 RESIDUE           4 0n    UNL     7 ROOT
    55 UNL   229 RESIDUE           4 0u    UNL    18 ROOT
    56 UNL   235 RESIDUE           4 0v    UNL    12 ROOT
    57 UNL   241 RESIDUE           4 0w    UNL    12 ROOT
    58 UNL   244 RESIDUE           4 0x    UNL     9 ROOT
    59 UNL   248 RESIDUE           4 0y    UNL     7 ROOT
    60 UNL   250 RESIDUE           4 0z    UNL     7 ROOT
    61 UNL   252 RESIDUE           4 07    UNL    18 ROOT
    62 UNL   258 RESIDUE           4 08    UNL    12 ROOT
    63 UNL   264 RESIDUE           4 09    UNL    12 ROOT
    64 UNL   267 RESIDUE           4 00    UNL     9 ROOT
    65 UNL   271 RESIDUE           4 00A   UNL     7 ROOT
    66 UNL   273 RESIDUE           4 00B   UNL     7 ROOT
    67 UNL   275 RESIDUE           4 00I   UNL    18 ROOT
    68 UNL   281 RESIDUE           4 00J   UNL    12 ROOT
    69 UNL   287 RESIDUE           4 00K   UNL    12 ROOT
    70 UNL   290 RESIDUE           4 00L   UNL     8 ROOT
    71 UNL   294 RESIDUE           4 00M   UNL     6 ROOT
    72 UNL   296 RESIDUE           4 00N   UNL     4 ROOT
    73 UNL   298 RESIDUE           4 00U   UNL    10 ROOT
    74 UNL   304 RESIDUE           4 00V   UNL     6 ROOT
    75 UNL   310 RESIDUE           4 00W   UNL     6 ROOT
    76 UNL   316 RESIDUE           4 00X   UNL     9 ROOT
    77 UNL   320 RESIDUE           4 00Y   UNL     7 ROOT
    78 UNL   322 RESIDUE           4 00Z   UNL     7 ROOT
    79 UNL   324 RESIDUE           4 00g   UNL    14 ROOT
    80 UNL   330 RESIDUE           4 00h   UNL     9 ROOT
    81 UNL   336 RESIDUE           4 00i   UNL     9 ROOT
    82 UNL   339 RESIDUE           4 00j   UNL     9 ROOT
    83 UNL   343 RESIDUE           4 00k   UNL     7 ROOT
    84 UNL   345 RESIDUE           4 00l   UNL     7 ROOT
    85 UNL   347 RESIDUE           4 00s   UNL    14 ROOT
    86 UNL   353 RESIDUE           4 00t   UNL     9 ROOT
    87 UNL   359 RESIDUE           4 00u   UNL     9 ROOT
    88 UNL   362 RESIDUE           4 00v   UNL     9 ROOT
    89 UNL   366 RESIDUE           4 00w   UNL     7 ROOT
    90 UNL   368 RESIDUE           4 00x   UNL     7 ROOT
    91 UNL   370 RESIDUE           4 005   UNL    14 ROOT
    92 UNL   376 RESIDUE           4 006   UNL     9 ROOT
    93 UNL   382 RESIDUE           4 007   UNL     9 ROOT
    94 UNL   385 RESIDUE           4 008   UNL     8 ROOT
    95 UNL   389 RESIDUE           4 009   UNL     6 ROOT
    96 UNL   391 RESIDUE           4 000   UNL     4 ROOT
    97 UNL   393 RESIDUE           4 000G  UNL     8 ROOT
    98 UNL   400 RESIDUE           4 000H  UNL     4 ROOT
    99 UNL   405 RESIDUE           4 000I  UNL     6 ROOT
   100 UNL   410 RESIDUE           4 000J  UNL    14 ROOT
   101 UNL   419 RESIDUE           4 000K  UNL     9 ROOT
   102 UNL   425 RESIDUE           4 000L  UNL     9 ROOT
   103 UNL   431 RESIDUE           4 000S  UNL    11 ROOT
   104 UNL   438 RESIDUE           4 000T  UNL     6 ROOT
   105 UNL   443 RESIDUE           4 000U  UNL     6 ROOT
   106 UNL   445 RESIDUE           4 000V  UNL    14 ROOT
   107 UNL   454 RESIDUE           4 000W  UNL     9 ROOT
   108 UNL   457 RESIDUE           4 000X  UNL     9 ROOT
   109 UNL   463 RESIDUE           4 000e  UNL    11 ROOT
   110 UNL   470 RESIDUE           4 000f  UNL     6 ROOT
   111 UNL   475 RESIDUE           4 000g  UNL     6 ROOT
   112 UNL   477 RESIDUE           4 000h  UNL    14 ROOT
   113 UNL   486 RESIDUE           4 000i  UNL     9 ROOT
   114 UNL   489 RESIDUE           4 000j  UNL     9 ROOT
   115 UNL   495 RESIDUE           4 000q  UNL    11 ROOT
   116 UNL   502 RESIDUE           4 000r  UNL     6 ROOT
   117 UNL   507 RESIDUE           4 000s  UNL     6 ROOT
   118 UNL   509 RESIDUE           4 000t  UNL    10 ROOT
   119 UNL   518 RESIDUE           4 000u  UNL     6 ROOT
   120 UNL   521 RESIDUE           4 000v  UNL     6 ROOT
   121 UNL   527 RESIDUE           4 0003  UNL     8 ROOT
   122 UNL   531 RESIDUE           4 0004  UNL     4 ROOT
   123 UNL   536 RESIDUE           4 0005  UNL     6 ROOT
   124 UNL   541 RESIDUE           4 0006  UNL    18 ROOT
   125 UNL   550 RESIDUE           4 0007  UNL    12 ROOT
   126 UNL   556 RESIDUE           4 0008  UNL    12 ROOT
   127 UNL   559 RESIDUE           4 0000E  UNL    11 ROOT
   128 UNL   563 RESIDUE           4 0000F  UNL     6 ROOT
   129 UNL   568 RESIDUE           4 0000G  UNL     6 ROOT
   130 UNL   570 RESIDUE           4 0000H  UNL    18 ROOT
   131 UNL   579 RESIDUE           4 0000I  UNL    12 ROOT
   132 UNL   582 RESIDUE           4 0000J  UNL    12 ROOT
   133 UNL   585 RESIDUE           4 0000Q  UNL    11 ROOT
   134 UNL   589 RESIDUE           4 0000R  UNL     6 ROOT
   135 UNL   594 RESIDUE           4 0000S  UNL     6 ROOT
   136 UNL   596 RESIDUE           4 0000T  UNL    18 ROOT
   137 UNL   605 RESIDUE           4 0000U  UNL    12 ROOT
   138 UNL   608 RESIDUE           4 0000V  UNL    12 ROOT
   139 UNL   611 RESIDUE           4 0000c  UNL    11 ROOT
   140 UNL   615 RESIDUE           4 0000d  UNL     6 ROOT
   141 UNL   620 RESIDUE           4 0000e  UNL     6 ROOT
   142 UNL   622 RESIDUE           4 0000f  UNL    14 ROOT
   143 UNL   631 RESIDUE           4 0000g  UNL     9 ROOT
   144 UNL   634 RESIDUE           4 0000h  UNL     9 ROOT
   145 UNL   637 RESIDUE           4 0000o  UNL     8 ROOT
   146 UNL   641 RESIDUE           4 0000p  UNL     4 ROOT
   147 UNL   646 RESIDUE           4 0000q  UNL     6 ROOT
   148 UNL   651 RESIDUE           4 0000r  UNL    18 ROOT
   149 UNL   660 RESIDUE           4 0000s  UNL    12 ROOT
   150 UNL   666 RESIDUE           4 0000t  UNL    12 ROOT
   151 UNL   669 RESIDUE           4 00001  UNL    11 ROOT
   152 UNL   673 RESIDUE           4 00002  UNL     6 ROOT
   153 UNL   678 RESIDUE           4 00003  UNL     6 ROOT
   154 UNL   680 RESIDUE           4 00004  UNL    18 ROOT
   155 UNL   689 RESIDUE           4 00005  UNL    12 ROOT
   156 UNL   692 RESIDUE           4 00006  UNL    12 ROOT
   157 UNL   695 RESIDUE           4 00000C  UNL    11 ROOT
   158 UNL   699 RESIDUE           4 00000D  UNL     6 ROOT
   159 UNL   704 RESIDUE           4 00000E  UNL     6 ROOT
   160 UNL   706 RESIDUE           4 00000F  UNL    18 ROOT
   161 UNL   715 RESIDUE           4 00000G  UNL    12 ROOT
   162 UNL   718 RESIDUE           4 00000H  UNL    12 ROOT
   163 UNL   721 RESIDUE           4 00000O  UNL    11 ROOT
   164 UNL   725 RESIDUE           4 00000P  UNL     6 ROOT
   165 UNL   730 RESIDUE           4 00000Q  UNL     6 ROOT
   166 UNL   732 RESIDUE           4 00000R  UNL    14 ROOT
   167 UNL   741 RESIDUE           4 00000S  UNL     9 ROOT
   168 UNL   744 RESIDUE           4 00000T  UNL     9 ROOT
   169 UNL   747 RESIDUE           4 00000a  UNL     5 ROOT
   170 UNL   751 RESIDUE           4 00000b  UNL     4 ROOT
   171 UNL   756 RESIDUE           4 00000c  UNL     4 ROOT
   172 UNL   761 RESIDUE           4 00000d  UNL    18 ROOT
   173 UNL   770 RESIDUE           4 00000e  UNL    12 ROOT
   174 UNL   776 RESIDUE           4 00000f  UNL    12 ROOT
   175 UNL   779 RESIDUE           4 00000m  UNL     8 ROOT
   176 UNL   783 RESIDUE           4 00000n  UNL     6 ROOT
   177 UNL   788 RESIDUE           4 00000o  UNL     4 ROOT
   178 UNL   790 RESIDUE           4 00000p  UNL    18 ROOT
   179 UNL   799 RESIDUE           4 00000q  UNL    12 ROOT
   180 UNL   802 RESIDUE           4 00000r  UNL    12 ROOT
   181 UNL   805 RESIDUE           4 00000y  UNL     8 ROOT
   182 UNL   809 RESIDUE           4 00000z  UNL     6 ROOT
   183 UNL   814 RESIDUE           4 000001  UNL     4 ROOT
   184 UNL   816 RESIDUE           4 000002  UNL    18 ROOT
   185 UNL   825 RESIDUE           4 000003  UNL    12 ROOT
   186 UNL   828 RESIDUE           4 000004  UNL    12 ROOT
   187 UNL   831 RESIDUE           4 000000A  UNL     8 ROOT
   188 UNL   835 RESIDUE           4 000000B  UNL     6 ROOT
   189 UNL   840 RESIDUE           4 000000C  UNL     4 ROOT
   190 UNL   842 RESIDUE           4 000000D  UNL    14 ROOT
   191 UNL   851 RESIDUE           4 000000E  UNL     9 ROOT
   192 UNL   854 RESIDUE           4 000000F  UNL     9 ROOT
